/*--------------------------------*- C++ -*----------------------------------*\
  =========                 |
  \\      /  F ield         | OpenFOAM: The Open Source CFD Toolbox
   \\    /   O peration     | Website:  https://openfoam.org
    \\  /    A nd           | Version:  7
     \\/     M anipulation  |
\*---------------------------------------------------------------------------*/
FoamFile
{
    version     2.0;
    format      ascii;
    class       polyBoundaryMesh;
    location    "constant/polyMesh";
    object      boundary;
}
// * * * * * * * * * * * * * * * * * * * * * * * * * * * * * * * * * * * * * //

6
(
    auto0
    {
        type            wall;
        nFaces          4973;
        startFace       310850;
    }
    auto1
    {
        type            wall;
        nFaces          7172;
        startFace       315823;
    }
    auto2
    {
        type            wall;
        nFaces          14908;
        startFace       322995;
    }
    auto3
    {
        type            wall;
        nFaces          13218;
        startFace       337903;
    }
    auto4
    {
        type            wall;
        nFaces          7172;
        startFace       351121;
    }
    auto5
    {
        type            wall;
        nFaces          7172;
        startFace       358293;
    }
)

// ************************************************************************* //
