/*--------------------------------*- C++ -*----------------------------------*\
  =========                 |
  \\      /  F ield         | OpenFOAM: The Open Source CFD Toolbox
   \\    /   O peration     | Website:  https://openfoam.org
    \\  /    A nd           | Version:  7
     \\/     M anipulation  |
\*---------------------------------------------------------------------------*/
FoamFile
{
    version     2.0;
    format      ascii;
    class       dictionary;
    object      snappyHexMeshDict;
}
// * * * * * * * * * * * * * * * * * * * * * * * * * * * * * * * * * * * * * //

// Which of the steps to run
castellatedMesh true;
snap            false;
addLayers       false;


geometry
{
    B1_TE6.stl
    {
        type triSurfaceMesh;
        file "B1_TE6.stl";
	name B1;
    }
};



// Settings for the castellatedMesh generation.
castellatedMeshControls
{

    maxLocalCells 100000;
    maxGlobalCells 200000;

    minRefinementCells 10;

    maxLoadUnbalance 0.10;
    nCellsBetweenLevels 1;

    features
    (
        {
            file "B1_TE6.eMesh";
            level 3;
        }
    );


    refinementSurfaces
    {
        B1
        {
            // Surface-wise min and max refinement level
            level (3 3);

            // Optional specification of patch type (default is wall). No
            // constraint types (cyclic, symmetry) etc. are allowed.
         }
    }

    // Resolve sharp angles
    resolveFeatureAngle 80;

    refinementRegions
    {
        refinementBox
        {
            mode inside;
            levels ((1E15 4));
        }
    }

    locationInMesh (1 1 1);
    allowFreeStandingZoneFaces true;
}



// Settings for the snapping.
snapControls
{

    nSmoothPatch 3;

    tolerance 4.0;

    nSolveIter 30;

    nRelaxIter 5;

    nFeatureSnapIter 15;

    implicitFeatureSnap false;

    explicitFeatureSnap true;

    multiRegionFeatureSnap false;
}



// Settings for the layer addition.
addLayersControls
{
    relativeSizes false;

    layers
    {
        insides
        {
            nSurfaceLayers 3;
        }
    }

    expansionRatio 1.3;

    finalLayerThickness 0.3;

    minThickness 0.1;

    nGrow 0;

    featureAngle 60;

    slipFeatureAngle 30;

    nRelaxIter 3;

    nSmoothSurfaceNormals 1;

    nSmoothNormals 3;

    nSmoothThickness 10;

    maxFaceThicknessRatio 0.5;

    maxThicknessToMedialRatio 0.3;

    minMedianAxisAngle 90;

    nBufferCellsNoExtrude 0;

    nLayerIter 50;
}



meshQualityControls
{
	#include "meshQualityDict"
}


// Advanced

// Write flags
writeFlags
(
    scalarLevels
    layerSets
    layerFields     // write volScalarField for layer coverage
);


// Merge tolerance. Is fraction of overall bounding box of initial mesh.
// Note: the write tolerance needs to be higher than this.
mergeTolerance 1e-6;


// ************************************************************************* //
