/*--------------------------------*- C++ -*----------------------------------*\
  =========                 |
  \\      /  F ield         | OpenFOAM: The Open Source CFD Toolbox
   \\    /   O peration     | Website:  https://openfoam.org
    \\  /    A nd           | Version:  7
     \\/     M anipulation  |
\*---------------------------------------------------------------------------*/
FoamFile
{
    version     2.0;
    format      ascii;
    class       extendedFeatureEdgeMesh;
    location    "constant/extendedFeatureEdgeMesh";
    object      rand_env_0_flow_vol.extendedFeatureEdgeMesh;
}
// * * * * * * * * * * * * * * * * * * * * * * * * * * * * * * * * * * * * * //

// points

1756
(
(0.1 9.9 3)
(0.1 9.9 0)
(0.1 0.1 0)
(0.1 0.1 3)
(3 9.9 0)
(3 9.9 3)
(3 0.1 3)
(3 0.1 0)
(3.1 9.9 3)
(3.1 9.9 0)
(3.1 6.4 0)
(3.1 6.4 3)
(3.1 1.8 3)
(3.1 1.8 0)
(3.1 0.1 0)
(3.1 0.1 3)
(4.6 6.3 0)
(4.6 6.3 3)
(4.7 6.3 3)
(4.7 6.3 0)
(4.7 4.6 0)
(4.7 4.6 3)
(6.1 6.3 0)
(6.1 6.3 3)
(6.1 4.6 3)
(6.1 4.6 0)
(6.2 6.3 3)
(6.2 6.3 0)
(6.9 1.8 0)
(6.9 1.8 3)
(6.9 0.1 3)
(6.9 0.1 0)
(7 0.1 0)
(7 0.1 3)
(8.4 6.3 0)
(8.4 6.3 3)
(8.5 4.6 0)
(8.5 4.6 3)
(9.9 9.9 0)
(9.9 9.9 3)
(9.9 4.6 3)
(9.9 4.6 0)
(9.9 4.5 0)
(9.9 4.5 3)
(9.9 0.1 3)
(9.9 0.1 0)
(3 6.3 3)
(3 6.3 0)
(3 1.9 3)
(3 1.9 0)
(4.6 4.5 3)
(4.6 4.5 0)
(6.2 4.5 0)
(6.2 4.5 3)
(7 1.9 3)
(7 1.9 0)
(8.4 4.5 3)
(8.4 4.5 0)
(8.5 6.4 3)
(8.5 6.4 0)
(0.1 9.8 0)
(0.1 9.8 3)
(0.1 9.7 0)
(0.1 9.7 3)
(0.1 9.6 0)
(0.1 9.6 3)
(0.1 9.5 0)
(0.1 9.5 3)
(0.1 9.4 0)
(0.1 9.4 3)
(0.1 9.3 0)
(0.1 9.3 3)
(0.1 9.2 0)
(0.1 9.2 3)
(0.1 9.1 0)
(0.1 9.1 3)
(0.1 9 0)
(0.1 9 3)
(0.1 8.9 0)
(0.1 8.9 3)
(0.1 8.8 0)
(0.1 8.8 3)
(0.1 8.7 0)
(0.1 8.7 3)
(0.1 8.6 0)
(0.1 8.6 3)
(0.1 8.5 0)
(0.1 8.5 3)
(0.1 8.4 0)
(0.1 8.4 3)
(0.1 8.3 0)
(0.1 8.3 3)
(0.1 8.2 0)
(0.1 8.2 3)
(0.1 8.1 0)
(0.1 8.1 3)
(0.1 8 0)
(0.1 8 3)
(0.1 7.9 0)
(0.1 7.9 3)
(0.1 7.8 0)
(0.1 7.8 3)
(0.1 7.7 0)
(0.1 7.7 3)
(0.1 7.6 0)
(0.1 7.6 3)
(0.1 7.5 0)
(0.1 7.5 3)
(0.1 7.4 0)
(0.1 7.4 3)
(0.1 7.3 0)
(0.1 7.3 3)
(0.1 7.2 0)
(0.1 7.2 3)
(0.1 7.1 0)
(0.1 7.1 3)
(0.1 7 0)
(0.1 7 3)
(0.1 6.9 0)
(0.1 6.9 3)
(0.1 6.8 0)
(0.1 6.8 3)
(0.1 6.7 0)
(0.1 6.7 3)
(0.1 6.6 0)
(0.1 6.6 3)
(0.1 6.5 0)
(0.1 6.5 3)
(0.1 6.4 0)
(0.1 6.4 3)
(0.1 6.3 0)
(0.1 6.3 3)
(0.1 6.2 0)
(0.1 6.2 3)
(0.1 6.1 0)
(0.1 6.1 3)
(0.1 6 0)
(0.1 6 3)
(0.1 5.9 0)
(0.1 5.9 3)
(0.1 5.8 0)
(0.1 5.8 3)
(0.1 5.7 0)
(0.1 5.7 3)
(0.1 5.6 0)
(0.1 5.6 3)
(0.1 5.5 0)
(0.1 5.5 3)
(0.1 5.4 0)
(0.1 5.4 3)
(0.1 5.3 0)
(0.1 5.3 3)
(0.1 5.2 0)
(0.1 5.2 3)
(0.1 5.1 0)
(0.1 5.1 3)
(0.1 5 0)
(0.1 5 3)
(0.1 4.9 0)
(0.1 4.9 3)
(0.1 4.8 0)
(0.1 4.8 3)
(0.1 4.7 0)
(0.1 4.7 3)
(0.1 4.6 0)
(0.1 4.6 3)
(0.1 4.5 0)
(0.1 4.5 3)
(0.1 4.4 0)
(0.1 4.4 3)
(0.1 4.3 0)
(0.1 4.3 3)
(0.1 4.2 0)
(0.1 4.2 3)
(0.1 4.1 0)
(0.1 4.1 3)
(0.1 4 0)
(0.1 4 3)
(0.1 3.9 0)
(0.1 3.9 3)
(0.1 3.8 0)
(0.1 3.8 3)
(0.1 3.7 0)
(0.1 3.7 3)
(0.1 3.6 0)
(0.1 3.6 3)
(0.1 3.5 0)
(0.1 3.5 3)
(0.1 3.4 0)
(0.1 3.4 3)
(0.1 3.3 0)
(0.1 3.3 3)
(0.1 3.2 0)
(0.1 3.2 3)
(0.1 3.1 0)
(0.1 3.1 3)
(0.1 3 0)
(0.1 3 3)
(0.1 2.9 0)
(0.1 2.9 3)
(0.1 2.8 0)
(0.1 2.8 3)
(0.1 2.7 0)
(0.1 2.7 3)
(0.1 2.6 0)
(0.1 2.6 3)
(0.1 2.5 0)
(0.1 2.5 3)
(0.1 2.4 0)
(0.1 2.4 3)
(0.1 2.3 0)
(0.1 2.3 3)
(0.1 2.2 0)
(0.1 2.2 3)
(0.1 2.1 0)
(0.1 2.1 3)
(0.1 2 0)
(0.1 2 3)
(0.1 1.9 0)
(0.1 1.9 3)
(0.1 1.8 0)
(0.1 1.8 3)
(0.1 1.7 0)
(0.1 1.7 3)
(0.1 1.6 0)
(0.1 1.6 3)
(0.1 1.5 0)
(0.1 1.5 3)
(0.1 1.4 0)
(0.1 1.4 3)
(0.1 1.3 0)
(0.1 1.3 3)
(0.1 1.2 0)
(0.1 1.2 3)
(0.1 1.1 0)
(0.1 1.1 3)
(0.1 1 0)
(0.1 1 3)
(0.1 0.9 0)
(0.1 0.9 3)
(0.1 0.8 0)
(0.1 0.8 3)
(0.1 0.7 0)
(0.1 0.7 3)
(0.1 0.6 0)
(0.1 0.6 3)
(0.1 0.5 0)
(0.1 0.5 3)
(0.1 0.4 0)
(0.1 0.4 3)
(0.1 0.3 0)
(0.1 0.3 3)
(0.1 0.2 0)
(0.1 0.2 3)
(0.2 9.9 0)
(0.2 9.9 3)
(0.2 0.1 3)
(0.2 0.1 0)
(0.3 9.9 0)
(0.3 9.9 3)
(0.3 0.1 3)
(0.3 0.1 0)
(0.4 9.9 0)
(0.4 9.9 3)
(0.4 0.1 3)
(0.4 0.1 0)
(0.5 9.9 0)
(0.5 9.9 3)
(0.5 0.1 3)
(0.5 0.1 0)
(0.6 9.9 0)
(0.6 9.9 3)
(0.6 0.1 3)
(0.6 0.1 0)
(0.7 9.9 0)
(0.7 9.9 3)
(0.7 0.1 3)
(0.7 0.1 0)
(0.8 9.9 0)
(0.8 9.9 3)
(0.8 0.1 3)
(0.8 0.1 0)
(0.9 9.9 0)
(0.9 9.9 3)
(0.9 0.1 3)
(0.9 0.1 0)
(1 9.9 0)
(1 9.9 3)
(1 0.1 3)
(1 0.1 0)
(1.1 9.9 0)
(1.1 9.9 3)
(1.1 0.1 3)
(1.1 0.1 0)
(1.2 9.9 0)
(1.2 9.9 3)
(1.2 0.1 3)
(1.2 0.1 0)
(1.3 9.9 0)
(1.3 9.9 3)
(1.3 0.1 3)
(1.3 0.1 0)
(1.4 9.9 0)
(1.4 9.9 3)
(1.4 0.1 3)
(1.4 0.1 0)
(1.5 9.9 0)
(1.5 9.9 3)
(1.5 0.1 3)
(1.5 0.1 0)
(1.6 9.9 0)
(1.6 9.9 3)
(1.6 0.1 3)
(1.6 0.1 0)
(1.7 9.9 0)
(1.7 9.9 3)
(1.7 0.1 3)
(1.7 0.1 0)
(1.8 9.9 0)
(1.8 9.9 3)
(1.8 0.1 3)
(1.8 0.1 0)
(1.9 9.9 0)
(1.9 9.9 3)
(1.9 0.1 3)
(1.9 0.1 0)
(2 9.9 0)
(2 9.9 3)
(2 0.1 3)
(2 0.1 0)
(2.1 9.9 0)
(2.1 9.9 3)
(2.1 0.1 3)
(2.1 0.1 0)
(2.2 9.9 0)
(2.2 9.9 3)
(2.2 0.1 3)
(2.2 0.1 0)
(2.3 9.9 0)
(2.3 9.9 3)
(2.3 0.1 3)
(2.3 0.1 0)
(2.4 9.9 0)
(2.4 9.9 3)
(2.4 0.1 3)
(2.4 0.1 0)
(2.5 9.9 0)
(2.5 9.9 3)
(2.5 0.1 3)
(2.5 0.1 0)
(2.6 9.9 0)
(2.6 9.9 3)
(2.6 0.1 3)
(2.6 0.1 0)
(2.7 9.9 0)
(2.7 9.9 3)
(2.7 0.1 3)
(2.7 0.1 0)
(2.8 9.9 0)
(2.8 9.9 3)
(2.8 0.1 3)
(2.8 0.1 0)
(2.9 9.9 0)
(2.9 9.9 3)
(2.9 0.1 3)
(2.9 0.1 0)
(3 9.8 3)
(3 9.8 0)
(3 9.7 3)
(3 9.7 0)
(3 9.6 3)
(3 9.6 0)
(3 9.5 3)
(3 9.5 0)
(3 9.4 3)
(3 9.4 0)
(3 9.3 3)
(3 9.3 0)
(3 9.2 3)
(3 9.2 0)
(3 9.1 3)
(3 9.1 0)
(3 9 3)
(3 9 0)
(3 8.9 3)
(3 8.9 0)
(3 8.8 3)
(3 8.8 0)
(3 8.7 3)
(3 8.7 0)
(3 8.6 3)
(3 8.6 0)
(3 8.5 3)
(3 8.5 0)
(3 8.4 3)
(3 8.4 0)
(3 8.3 3)
(3 8.3 0)
(3 8.2 3)
(3 8.2 0)
(3 8.1 3)
(3 8.1 0)
(3 8 3)
(3 8 0)
(3 7.9 3)
(3 7.9 0)
(3 7.8 3)
(3 7.8 0)
(3 7.7 3)
(3 7.7 0)
(3 7.6 3)
(3 7.6 0)
(3 7.5 3)
(3 7.5 0)
(3 7.4 3)
(3 7.4 0)
(3 7.3 3)
(3 7.3 0)
(3 7.2 3)
(3 7.2 0)
(3 7.1 3)
(3 7.1 0)
(3 7 3)
(3 7 0)
(3 6.9 3)
(3 6.9 0)
(3 6.8 3)
(3 6.8 0)
(3 6.7 3)
(3 6.7 0)
(3 6.6 3)
(3 6.6 0)
(3 6.5 3)
(3 6.5 0)
(3 6.4 3)
(3 6.4 0)
(3 1.8 3)
(3 1.8 0)
(3 1.7 3)
(3 1.7 0)
(3 1.6 3)
(3 1.6 0)
(3 1.5 3)
(3 1.5 0)
(3 1.4 3)
(3 1.4 0)
(3 1.3 3)
(3 1.3 0)
(3 1.2 3)
(3 1.2 0)
(3 1.1 3)
(3 1.1 0)
(3 1 3)
(3 1 0)
(3 0.9 3)
(3 0.9 0)
(3 0.8 3)
(3 0.8 0)
(3 0.7 3)
(3 0.7 0)
(3 0.6 3)
(3 0.6 0)
(3 0.5 3)
(3 0.5 0)
(3 0.4 3)
(3 0.4 0)
(3 0.3 3)
(3 0.3 0)
(3 0.2 3)
(3 0.2 0)
(3.1 6.3 0)
(3.1 6.3 3)
(3.1 1.9 3)
(3.1 1.9 0)
(3.1 9.8 0)
(3.1 9.8 3)
(3.1 9.7 0)
(3.1 9.7 3)
(3.1 9.6 0)
(3.1 9.6 3)
(3.1 9.5 0)
(3.1 9.5 3)
(3.1 9.4 0)
(3.1 9.4 3)
(3.1 9.3 0)
(3.1 9.3 3)
(3.1 9.2 0)
(3.1 9.2 3)
(3.1 9.1 0)
(3.1 9.1 3)
(3.1 9 0)
(3.1 9 3)
(3.1 8.9 0)
(3.1 8.9 3)
(3.1 8.8 0)
(3.1 8.8 3)
(3.1 8.7 0)
(3.1 8.7 3)
(3.1 8.6 0)
(3.1 8.6 3)
(3.1 8.5 0)
(3.1 8.5 3)
(3.1 8.4 0)
(3.1 8.4 3)
(3.1 8.3 0)
(3.1 8.3 3)
(3.1 8.2 0)
(3.1 8.2 3)
(3.1 8.1 0)
(3.1 8.1 3)
(3.1 8 0)
(3.1 8 3)
(3.1 7.9 0)
(3.1 7.9 3)
(3.1 7.8 0)
(3.1 7.8 3)
(3.1 7.7 0)
(3.1 7.7 3)
(3.1 7.6 0)
(3.1 7.6 3)
(3.1 7.5 0)
(3.1 7.5 3)
(3.1 7.4 0)
(3.1 7.4 3)
(3.1 7.3 0)
(3.1 7.3 3)
(3.1 7.2 0)
(3.1 7.2 3)
(3.1 7.1 0)
(3.1 7.1 3)
(3.1 7 0)
(3.1 7 3)
(3.1 6.9 0)
(3.1 6.9 3)
(3.1 6.8 0)
(3.1 6.8 3)
(3.1 6.7 0)
(3.1 6.7 3)
(3.1 6.6 0)
(3.1 6.6 3)
(3.1 6.5 0)
(3.1 6.5 3)
(3.1 1.7 0)
(3.1 1.7 3)
(3.1 1.6 0)
(3.1 1.6 3)
(3.1 1.5 0)
(3.1 1.5 3)
(3.1 1.4 0)
(3.1 1.4 3)
(3.1 1.3 0)
(3.1 1.3 3)
(3.1 1.2 0)
(3.1 1.2 3)
(3.1 1.1 0)
(3.1 1.1 3)
(3.1 1 0)
(3.1 1 3)
(3.1 0.9 0)
(3.1 0.9 3)
(3.1 0.8 0)
(3.1 0.8 3)
(3.1 0.7 0)
(3.1 0.7 3)
(3.1 0.6 0)
(3.1 0.6 3)
(3.1 0.5 0)
(3.1 0.5 3)
(3.1 0.4 0)
(3.1 0.4 3)
(3.1 0.3 0)
(3.1 0.3 3)
(3.1 0.2 0)
(3.1 0.2 3)
(3.2 9.9 0)
(3.2 9.9 3)
(3.2 6.4 3)
(3.2 6.4 0)
(3.2 6.3 0)
(3.2 6.3 3)
(3.2 1.9 3)
(3.2 1.9 0)
(3.2 1.8 0)
(3.2 1.8 3)
(3.2 0.1 3)
(3.2 0.1 0)
(3.3 9.9 0)
(3.3 9.9 3)
(3.3 6.4 3)
(3.3 6.4 0)
(3.3 6.3 0)
(3.3 6.3 3)
(3.3 1.9 3)
(3.3 1.9 0)
(3.3 1.8 0)
(3.3 1.8 3)
(3.3 0.1 3)
(3.3 0.1 0)
(3.4 9.9 0)
(3.4 9.9 3)
(3.4 6.4 3)
(3.4 6.4 0)
(3.4 6.3 0)
(3.4 6.3 3)
(3.4 1.9 3)
(3.4 1.9 0)
(3.4 1.8 0)
(3.4 1.8 3)
(3.4 0.1 3)
(3.4 0.1 0)
(3.5 9.9 0)
(3.5 9.9 3)
(3.5 6.4 3)
(3.5 6.4 0)
(3.5 6.3 0)
(3.5 6.3 3)
(3.5 1.9 3)
(3.5 1.9 0)
(3.5 1.8 0)
(3.5 1.8 3)
(3.5 0.1 3)
(3.5 0.1 0)
(3.6 9.9 0)
(3.6 9.9 3)
(3.6 6.4 3)
(3.6 6.4 0)
(3.6 6.3 0)
(3.6 6.3 3)
(3.6 1.9 3)
(3.6 1.9 0)
(3.6 1.8 0)
(3.6 1.8 3)
(3.6 0.1 3)
(3.6 0.1 0)
(3.7 9.9 0)
(3.7 9.9 3)
(3.7 6.4 3)
(3.7 6.4 0)
(3.7 6.3 0)
(3.7 6.3 3)
(3.7 1.9 3)
(3.7 1.9 0)
(3.7 1.8 0)
(3.7 1.8 3)
(3.7 0.1 3)
(3.7 0.1 0)
(3.8 9.9 0)
(3.8 9.9 3)
(3.8 6.4 3)
(3.8 6.4 0)
(3.8 6.3 0)
(3.8 6.3 3)
(3.8 1.9 3)
(3.8 1.9 0)
(3.8 1.8 0)
(3.8 1.8 3)
(3.8 0.1 3)
(3.8 0.1 0)
(3.9 9.9 0)
(3.9 9.9 3)
(3.9 6.4 3)
(3.9 6.4 0)
(3.9 6.3 0)
(3.9 6.3 3)
(3.9 1.9 3)
(3.9 1.9 0)
(3.9 1.8 0)
(3.9 1.8 3)
(3.9 0.1 3)
(3.9 0.1 0)
(4 9.9 0)
(4 9.9 3)
(4 6.4 3)
(4 6.4 0)
(4 6.3 0)
(4 6.3 3)
(4 1.9 3)
(4 1.9 0)
(4 1.8 0)
(4 1.8 3)
(4 0.1 3)
(4 0.1 0)
(4.1 9.9 0)
(4.1 9.9 3)
(4.1 6.4 3)
(4.1 6.4 0)
(4.1 6.3 0)
(4.1 6.3 3)
(4.1 1.9 3)
(4.1 1.9 0)
(4.1 1.8 0)
(4.1 1.8 3)
(4.1 0.1 3)
(4.1 0.1 0)
(4.2 9.9 0)
(4.2 9.9 3)
(4.2 6.4 3)
(4.2 6.4 0)
(4.2 6.3 0)
(4.2 6.3 3)
(4.2 1.9 3)
(4.2 1.9 0)
(4.2 1.8 0)
(4.2 1.8 3)
(4.2 0.1 3)
(4.2 0.1 0)
(4.3 9.9 0)
(4.3 9.9 3)
(4.3 6.4 3)
(4.3 6.4 0)
(4.3 6.3 0)
(4.3 6.3 3)
(4.3 1.9 3)
(4.3 1.9 0)
(4.3 1.8 0)
(4.3 1.8 3)
(4.3 0.1 3)
(4.3 0.1 0)
(4.4 9.9 0)
(4.4 9.9 3)
(4.4 6.4 3)
(4.4 6.4 0)
(4.4 6.3 0)
(4.4 6.3 3)
(4.4 1.9 3)
(4.4 1.9 0)
(4.4 1.8 0)
(4.4 1.8 3)
(4.4 0.1 3)
(4.4 0.1 0)
(4.5 9.9 0)
(4.5 9.9 3)
(4.5 6.4 3)
(4.5 6.4 0)
(4.5 6.3 0)
(4.5 6.3 3)
(4.5 1.9 3)
(4.5 1.9 0)
(4.5 1.8 0)
(4.5 1.8 3)
(4.5 0.1 3)
(4.5 0.1 0)
(4.6 9.9 0)
(4.6 9.9 3)
(4.6 6.4 3)
(4.6 6.4 0)
(4.6 6.2 3)
(4.6 6.2 0)
(4.6 6.1 3)
(4.6 6.1 0)
(4.6 6 3)
(4.6 6 0)
(4.6 5.9 3)
(4.6 5.9 0)
(4.6 5.8 3)
(4.6 5.8 0)
(4.6 5.7 3)
(4.6 5.7 0)
(4.6 5.6 3)
(4.6 5.6 0)
(4.6 5.5 3)
(4.6 5.5 0)
(4.6 5.4 3)
(4.6 5.4 0)
(4.6 5.3 3)
(4.6 5.3 0)
(4.6 5.2 3)
(4.6 5.2 0)
(4.6 5.1 3)
(4.6 5.1 0)
(4.6 5 3)
(4.6 5 0)
(4.6 4.9 3)
(4.6 4.9 0)
(4.6 4.8 3)
(4.6 4.8 0)
(4.6 4.7 3)
(4.6 4.7 0)
(4.6 4.6 3)
(4.6 4.6 0)
(4.6 1.9 3)
(4.6 1.9 0)
(4.6 1.8 0)
(4.6 1.8 3)
(4.6 0.1 3)
(4.6 0.1 0)
(4.7 9.9 0)
(4.7 9.9 3)
(4.7 6.4 3)
(4.7 6.4 0)
(4.7 4.5 0)
(4.7 4.5 3)
(4.7 1.9 3)
(4.7 1.9 0)
(4.7 1.8 0)
(4.7 1.8 3)
(4.7 0.1 3)
(4.7 0.1 0)
(4.7 6.2 0)
(4.7 6.2 3)
(4.7 6.1 0)
(4.7 6.1 3)
(4.7 6 0)
(4.7 6 3)
(4.7 5.9 0)
(4.7 5.9 3)
(4.7 5.8 0)
(4.7 5.8 3)
(4.7 5.7 0)
(4.7 5.7 3)
(4.7 5.6 0)
(4.7 5.6 3)
(4.7 5.5 0)
(4.7 5.5 3)
(4.7 5.4 0)
(4.7 5.4 3)
(4.7 5.3 0)
(4.7 5.3 3)
(4.7 5.2 0)
(4.7 5.2 3)
(4.7 5.1 0)
(4.7 5.1 3)
(4.7 5 0)
(4.7 5 3)
(4.7 4.9 0)
(4.7 4.9 3)
(4.7 4.8 0)
(4.7 4.8 3)
(4.7 4.7 0)
(4.7 4.7 3)
(4.8 9.9 0)
(4.8 9.9 3)
(4.8 6.4 3)
(4.8 6.4 0)
(4.8 6.3 0)
(4.8 6.3 3)
(4.8 4.6 3)
(4.8 4.6 0)
(4.8 4.5 0)
(4.8 4.5 3)
(4.8 1.9 3)
(4.8 1.9 0)
(4.8 1.8 0)
(4.8 1.8 3)
(4.8 0.1 3)
(4.8 0.1 0)
(4.9 9.9 0)
(4.9 9.9 3)
(4.9 6.4 3)
(4.9 6.4 0)
(4.9 6.3 0)
(4.9 6.3 3)
(4.9 4.6 3)
(4.9 4.6 0)
(4.9 4.5 0)
(4.9 4.5 3)
(4.9 1.9 3)
(4.9 1.9 0)
(4.9 1.8 0)
(4.9 1.8 3)
(4.9 0.1 3)
(4.9 0.1 0)
(5 9.9 0)
(5 9.9 3)
(5 6.4 3)
(5 6.4 0)
(5 6.3 0)
(5 6.3 3)
(5 4.6 3)
(5 4.6 0)
(5 4.5 0)
(5 4.5 3)
(5 1.9 3)
(5 1.9 0)
(5 1.8 0)
(5 1.8 3)
(5 0.1 3)
(5 0.1 0)
(5.1 9.9 0)
(5.1 9.9 3)
(5.1 6.4 3)
(5.1 6.4 0)
(5.1 6.3 0)
(5.1 6.3 3)
(5.1 4.6 3)
(5.1 4.6 0)
(5.1 4.5 0)
(5.1 4.5 3)
(5.1 1.9 3)
(5.1 1.9 0)
(5.1 1.8 0)
(5.1 1.8 3)
(5.1 0.1 3)
(5.1 0.1 0)
(5.2 9.9 0)
(5.2 9.9 3)
(5.2 6.4 3)
(5.2 6.4 0)
(5.2 6.3 0)
(5.2 6.3 3)
(5.2 4.6 3)
(5.2 4.6 0)
(5.2 4.5 0)
(5.2 4.5 3)
(5.2 1.9 3)
(5.2 1.9 0)
(5.2 1.8 0)
(5.2 1.8 3)
(5.2 0.1 3)
(5.2 0.1 0)
(5.3 9.9 0)
(5.3 9.9 3)
(5.3 6.4 3)
(5.3 6.4 0)
(5.3 6.3 0)
(5.3 6.3 3)
(5.3 4.6 3)
(5.3 4.6 0)
(5.3 4.5 0)
(5.3 4.5 3)
(5.3 1.9 3)
(5.3 1.9 0)
(5.3 1.8 0)
(5.3 1.8 3)
(5.3 0.1 3)
(5.3 0.1 0)
(5.4 9.9 0)
(5.4 9.9 3)
(5.4 6.4 3)
(5.4 6.4 0)
(5.4 6.3 0)
(5.4 6.3 3)
(5.4 4.6 3)
(5.4 4.6 0)
(5.4 4.5 0)
(5.4 4.5 3)
(5.4 1.9 3)
(5.4 1.9 0)
(5.4 1.8 0)
(5.4 1.8 3)
(5.4 0.1 3)
(5.4 0.1 0)
(5.5 9.9 0)
(5.5 9.9 3)
(5.5 6.4 3)
(5.5 6.4 0)
(5.5 6.3 0)
(5.5 6.3 3)
(5.5 4.6 3)
(5.5 4.6 0)
(5.5 4.5 0)
(5.5 4.5 3)
(5.5 1.9 3)
(5.5 1.9 0)
(5.5 1.8 0)
(5.5 1.8 3)
(5.5 0.1 3)
(5.5 0.1 0)
(5.6 9.9 0)
(5.6 9.9 3)
(5.6 6.4 3)
(5.6 6.4 0)
(5.6 6.3 0)
(5.6 6.3 3)
(5.6 4.6 3)
(5.6 4.6 0)
(5.6 4.5 0)
(5.6 4.5 3)
(5.6 1.9 3)
(5.6 1.9 0)
(5.6 1.8 0)
(5.6 1.8 3)
(5.6 0.1 3)
(5.6 0.1 0)
(5.7 9.9 0)
(5.7 9.9 3)
(5.7 6.4 3)
(5.7 6.4 0)
(5.7 6.3 0)
(5.7 6.3 3)
(5.7 4.6 3)
(5.7 4.6 0)
(5.7 4.5 0)
(5.7 4.5 3)
(5.7 1.9 3)
(5.7 1.9 0)
(5.7 1.8 0)
(5.7 1.8 3)
(5.7 0.1 3)
(5.7 0.1 0)
(5.8 9.9 0)
(5.8 9.9 3)
(5.8 6.4 3)
(5.8 6.4 0)
(5.8 6.3 0)
(5.8 6.3 3)
(5.8 4.6 3)
(5.8 4.6 0)
(5.8 4.5 0)
(5.8 4.5 3)
(5.8 1.9 3)
(5.8 1.9 0)
(5.8 1.8 0)
(5.8 1.8 3)
(5.8 0.1 3)
(5.8 0.1 0)
(5.9 9.9 0)
(5.9 9.9 3)
(5.9 6.4 3)
(5.9 6.4 0)
(5.9 6.3 0)
(5.9 6.3 3)
(5.9 4.6 3)
(5.9 4.6 0)
(5.9 4.5 0)
(5.9 4.5 3)
(5.9 1.9 3)
(5.9 1.9 0)
(5.9 1.8 0)
(5.9 1.8 3)
(5.9 0.1 3)
(5.9 0.1 0)
(6 9.9 0)
(6 9.9 3)
(6 6.4 3)
(6 6.4 0)
(6 6.3 0)
(6 6.3 3)
(6 4.6 3)
(6 4.6 0)
(6 4.5 0)
(6 4.5 3)
(6 1.9 3)
(6 1.9 0)
(6 1.8 0)
(6 1.8 3)
(6 0.1 3)
(6 0.1 0)
(6.1 9.9 0)
(6.1 9.9 3)
(6.1 6.4 3)
(6.1 6.4 0)
(6.1 6.2 3)
(6.1 6.2 0)
(6.1 6.1 3)
(6.1 6.1 0)
(6.1 6 3)
(6.1 6 0)
(6.1 5.9 3)
(6.1 5.9 0)
(6.1 5.8 3)
(6.1 5.8 0)
(6.1 5.7 3)
(6.1 5.7 0)
(6.1 5.6 3)
(6.1 5.6 0)
(6.1 5.5 3)
(6.1 5.5 0)
(6.1 5.4 3)
(6.1 5.4 0)
(6.1 5.3 3)
(6.1 5.3 0)
(6.1 5.2 3)
(6.1 5.2 0)
(6.1 5.1 3)
(6.1 5.1 0)
(6.1 5 3)
(6.1 5 0)
(6.1 4.9 3)
(6.1 4.9 0)
(6.1 4.8 3)
(6.1 4.8 0)
(6.1 4.7 3)
(6.1 4.7 0)
(6.1 4.5 0)
(6.1 4.5 3)
(6.1 1.9 3)
(6.1 1.9 0)
(6.1 1.8 0)
(6.1 1.8 3)
(6.1 0.1 3)
(6.1 0.1 0)
(6.2 9.9 0)
(6.2 9.9 3)
(6.2 6.4 3)
(6.2 6.4 0)
(6.2 1.9 3)
(6.2 1.9 0)
(6.2 1.8 0)
(6.2 1.8 3)
(6.2 0.1 3)
(6.2 0.1 0)
(6.2 6.2 0)
(6.2 6.2 3)
(6.2 6.1 0)
(6.2 6.1 3)
(6.2 6 0)
(6.2 6 3)
(6.2 5.9 0)
(6.2 5.9 3)
(6.2 5.8 0)
(6.2 5.8 3)
(6.2 5.7 0)
(6.2 5.7 3)
(6.2 5.6 0)
(6.2 5.6 3)
(6.2 5.5 0)
(6.2 5.5 3)
(6.2 5.4 0)
(6.2 5.4 3)
(6.2 5.3 0)
(6.2 5.3 3)
(6.2 5.2 0)
(6.2 5.2 3)
(6.2 5.1 0)
(6.2 5.1 3)
(6.2 5 0)
(6.2 5 3)
(6.2 4.9 0)
(6.2 4.9 3)
(6.2 4.8 0)
(6.2 4.8 3)
(6.2 4.7 0)
(6.2 4.7 3)
(6.2 4.6 0)
(6.2 4.6 3)
(6.3 9.9 0)
(6.3 9.9 3)
(6.3 6.4 3)
(6.3 6.4 0)
(6.3 6.3 0)
(6.3 6.3 3)
(6.3 1.9 3)
(6.3 1.9 0)
(6.3 1.8 0)
(6.3 1.8 3)
(6.3 0.1 3)
(6.3 0.1 0)
(6.4 9.9 0)
(6.4 9.9 3)
(6.4 6.4 3)
(6.4 6.4 0)
(6.4 6.3 0)
(6.4 6.3 3)
(6.4 1.9 3)
(6.4 1.9 0)
(6.4 1.8 0)
(6.4 1.8 3)
(6.4 0.1 3)
(6.4 0.1 0)
(6.5 9.9 0)
(6.5 9.9 3)
(6.5 6.4 3)
(6.5 6.4 0)
(6.5 6.3 0)
(6.5 6.3 3)
(6.5 1.9 3)
(6.5 1.9 0)
(6.5 1.8 0)
(6.5 1.8 3)
(6.5 0.1 3)
(6.5 0.1 0)
(6.6 9.9 0)
(6.6 9.9 3)
(6.6 6.4 3)
(6.6 6.4 0)
(6.6 6.3 0)
(6.6 6.3 3)
(6.6 1.9 3)
(6.6 1.9 0)
(6.6 1.8 0)
(6.6 1.8 3)
(6.6 0.1 3)
(6.6 0.1 0)
(6.7 9.9 0)
(6.7 9.9 3)
(6.7 6.4 3)
(6.7 6.4 0)
(6.7 6.3 0)
(6.7 6.3 3)
(6.7 1.9 3)
(6.7 1.9 0)
(6.7 1.8 0)
(6.7 1.8 3)
(6.7 0.1 3)
(6.7 0.1 0)
(6.8 9.9 0)
(6.8 9.9 3)
(6.8 6.4 3)
(6.8 6.4 0)
(6.8 6.3 0)
(6.8 6.3 3)
(6.8 1.9 3)
(6.8 1.9 0)
(6.8 1.8 0)
(6.8 1.8 3)
(6.8 0.1 3)
(6.8 0.1 0)
(6.9 9.9 0)
(6.9 9.9 3)
(6.9 6.4 3)
(6.9 6.4 0)
(6.9 6.3 0)
(6.9 6.3 3)
(6.9 1.9 3)
(6.9 1.9 0)
(6.9 1.7 3)
(6.9 1.7 0)
(6.9 1.6 3)
(6.9 1.6 0)
(6.9 1.5 3)
(6.9 1.5 0)
(6.9 1.4 3)
(6.9 1.4 0)
(6.9 1.3 3)
(6.9 1.3 0)
(6.9 1.2 3)
(6.9 1.2 0)
(6.9 1.1 3)
(6.9 1.1 0)
(6.9 1 3)
(6.9 1 0)
(6.9 0.9 3)
(6.9 0.9 0)
(6.9 0.8 3)
(6.9 0.8 0)
(6.9 0.7 3)
(6.9 0.7 0)
(6.9 0.6 3)
(6.9 0.6 0)
(6.9 0.5 3)
(6.9 0.5 0)
(6.9 0.4 3)
(6.9 0.4 0)
(6.9 0.3 3)
(6.9 0.3 0)
(6.9 0.2 3)
(6.9 0.2 0)
(7 9.9 0)
(7 9.9 3)
(7 6.4 3)
(7 6.4 0)
(7 6.3 0)
(7 6.3 3)
(7 1.8 0)
(7 1.8 3)
(7 1.7 0)
(7 1.7 3)
(7 1.6 0)
(7 1.6 3)
(7 1.5 0)
(7 1.5 3)
(7 1.4 0)
(7 1.4 3)
(7 1.3 0)
(7 1.3 3)
(7 1.2 0)
(7 1.2 3)
(7 1.1 0)
(7 1.1 3)
(7 1 0)
(7 1 3)
(7 0.9 0)
(7 0.9 3)
(7 0.8 0)
(7 0.8 3)
(7 0.7 0)
(7 0.7 3)
(7 0.6 0)
(7 0.6 3)
(7 0.5 0)
(7 0.5 3)
(7 0.4 0)
(7 0.4 3)
(7 0.3 0)
(7 0.3 3)
(7 0.2 0)
(7 0.2 3)
(7.1 9.9 0)
(7.1 9.9 3)
(7.1 6.4 3)
(7.1 6.4 0)
(7.1 6.3 0)
(7.1 6.3 3)
(7.1 0.1 3)
(7.1 0.1 0)
(7.2 9.9 0)
(7.2 9.9 3)
(7.2 6.4 3)
(7.2 6.4 0)
(7.2 6.3 0)
(7.2 6.3 3)
(7.2 0.1 3)
(7.2 0.1 0)
(7.3 9.9 0)
(7.3 9.9 3)
(7.3 6.4 3)
(7.3 6.4 0)
(7.3 6.3 0)
(7.3 6.3 3)
(7.3 0.1 3)
(7.3 0.1 0)
(7.4 9.9 0)
(7.4 9.9 3)
(7.4 6.4 3)
(7.4 6.4 0)
(7.4 6.3 0)
(7.4 6.3 3)
(7.4 0.1 3)
(7.4 0.1 0)
(7.5 9.9 0)
(7.5 9.9 3)
(7.5 6.4 3)
(7.5 6.4 0)
(7.5 6.3 0)
(7.5 6.3 3)
(7.5 0.1 3)
(7.5 0.1 0)
(7.6 9.9 0)
(7.6 9.9 3)
(7.6 6.4 3)
(7.6 6.4 0)
(7.6 6.3 0)
(7.6 6.3 3)
(7.6 0.1 3)
(7.6 0.1 0)
(7.7 9.9 0)
(7.7 9.9 3)
(7.7 6.4 3)
(7.7 6.4 0)
(7.7 6.3 0)
(7.7 6.3 3)
(7.7 0.1 3)
(7.7 0.1 0)
(7.8 9.9 0)
(7.8 9.9 3)
(7.8 6.4 3)
(7.8 6.4 0)
(7.8 6.3 0)
(7.8 6.3 3)
(7.8 0.1 3)
(7.8 0.1 0)
(7.9 9.9 0)
(7.9 9.9 3)
(7.9 6.4 3)
(7.9 6.4 0)
(7.9 6.3 0)
(7.9 6.3 3)
(7.9 0.1 3)
(7.9 0.1 0)
(8 9.9 0)
(8 9.9 3)
(8 6.4 3)
(8 6.4 0)
(8 6.3 0)
(8 6.3 3)
(8 0.1 3)
(8 0.1 0)
(8.1 9.9 0)
(8.1 9.9 3)
(8.1 6.4 3)
(8.1 6.4 0)
(8.1 6.3 0)
(8.1 6.3 3)
(8.1 0.1 3)
(8.1 0.1 0)
(8.2 9.9 0)
(8.2 9.9 3)
(8.2 6.4 3)
(8.2 6.4 0)
(8.2 6.3 0)
(8.2 6.3 3)
(8.2 0.1 3)
(8.2 0.1 0)
(8.3 9.9 0)
(8.3 9.9 3)
(8.3 6.4 3)
(8.3 6.4 0)
(8.3 6.3 0)
(8.3 6.3 3)
(8.3 0.1 3)
(8.3 0.1 0)
(8.4 9.9 0)
(8.4 9.9 3)
(8.4 6.4 3)
(8.4 6.4 0)
(8.4 6.2 3)
(8.4 6.2 0)
(8.4 6.1 3)
(8.4 6.1 0)
(8.4 6 3)
(8.4 6 0)
(8.4 5.9 3)
(8.4 5.9 0)
(8.4 5.8 3)
(8.4 5.8 0)
(8.4 5.7 3)
(8.4 5.7 0)
(8.4 5.6 3)
(8.4 5.6 0)
(8.4 5.5 3)
(8.4 5.5 0)
(8.4 5.4 3)
(8.4 5.4 0)
(8.4 5.3 3)
(8.4 5.3 0)
(8.4 5.2 3)
(8.4 5.2 0)
(8.4 5.1 3)
(8.4 5.1 0)
(8.4 5 3)
(8.4 5 0)
(8.4 4.9 3)
(8.4 4.9 0)
(8.4 4.8 3)
(8.4 4.8 0)
(8.4 4.7 3)
(8.4 4.7 0)
(8.4 4.6 3)
(8.4 4.6 0)
(8.4 0.1 3)
(8.4 0.1 0)
(8.5 9.9 0)
(8.5 9.9 3)
(8.5 4.5 0)
(8.5 4.5 3)
(8.5 0.1 3)
(8.5 0.1 0)
(8.5 6.3 0)
(8.5 6.3 3)
(8.5 6.2 0)
(8.5 6.2 3)
(8.5 6.1 0)
(8.5 6.1 3)
(8.5 6 0)
(8.5 6 3)
(8.5 5.9 0)
(8.5 5.9 3)
(8.5 5.8 0)
(8.5 5.8 3)
(8.5 5.7 0)
(8.5 5.7 3)
(8.5 5.6 0)
(8.5 5.6 3)
(8.5 5.5 0)
(8.5 5.5 3)
(8.5 5.4 0)
(8.5 5.4 3)
(8.5 5.3 0)
(8.5 5.3 3)
(8.5 5.2 0)
(8.5 5.2 3)
(8.5 5.1 0)
(8.5 5.1 3)
(8.5 5 0)
(8.5 5 3)
(8.5 4.9 0)
(8.5 4.9 3)
(8.5 4.8 0)
(8.5 4.8 3)
(8.5 4.7 0)
(8.5 4.7 3)
(8.6 9.9 0)
(8.6 9.9 3)
(8.6 4.6 3)
(8.6 4.6 0)
(8.6 4.5 0)
(8.6 4.5 3)
(8.6 0.1 3)
(8.6 0.1 0)
(8.7 9.9 0)
(8.7 9.9 3)
(8.7 4.6 3)
(8.7 4.6 0)
(8.7 4.5 0)
(8.7 4.5 3)
(8.7 0.1 3)
(8.7 0.1 0)
(8.8 9.9 0)
(8.8 9.9 3)
(8.8 4.6 3)
(8.8 4.6 0)
(8.8 4.5 0)
(8.8 4.5 3)
(8.8 0.1 3)
(8.8 0.1 0)
(8.9 9.9 0)
(8.9 9.9 3)
(8.9 4.6 3)
(8.9 4.6 0)
(8.9 4.5 0)
(8.9 4.5 3)
(8.9 0.1 3)
(8.9 0.1 0)
(9 9.9 0)
(9 9.9 3)
(9 4.6 3)
(9 4.6 0)
(9 4.5 0)
(9 4.5 3)
(9 0.1 3)
(9 0.1 0)
(9.1 9.9 0)
(9.1 9.9 3)
(9.1 4.6 3)
(9.1 4.6 0)
(9.1 4.5 0)
(9.1 4.5 3)
(9.1 0.1 3)
(9.1 0.1 0)
(9.2 9.9 0)
(9.2 9.9 3)
(9.2 4.6 3)
(9.2 4.6 0)
(9.2 4.5 0)
(9.2 4.5 3)
(9.2 0.1 3)
(9.2 0.1 0)
(9.3 9.9 0)
(9.3 9.9 3)
(9.3 4.6 3)
(9.3 4.6 0)
(9.3 4.5 0)
(9.3 4.5 3)
(9.3 0.1 3)
(9.3 0.1 0)
(9.4 9.9 0)
(9.4 9.9 3)
(9.4 4.6 3)
(9.4 4.6 0)
(9.4 4.5 0)
(9.4 4.5 3)
(9.4 0.1 3)
(9.4 0.1 0)
(9.5 9.9 0)
(9.5 9.9 3)
(9.5 4.6 3)
(9.5 4.6 0)
(9.5 4.5 0)
(9.5 4.5 3)
(9.5 0.1 3)
(9.5 0.1 0)
(9.6 9.9 0)
(9.6 9.9 3)
(9.6 4.6 3)
(9.6 4.6 0)
(9.6 4.5 0)
(9.6 4.5 3)
(9.6 0.1 3)
(9.6 0.1 0)
(9.7 9.9 0)
(9.7 9.9 3)
(9.7 4.6 3)
(9.7 4.6 0)
(9.7 4.5 0)
(9.7 4.5 3)
(9.7 0.1 3)
(9.7 0.1 0)
(9.8 9.9 0)
(9.8 9.9 3)
(9.8 4.6 3)
(9.8 4.6 0)
(9.8 4.5 0)
(9.8 4.5 3)
(9.8 0.1 3)
(9.8 0.1 0)
(9.9 9.8 3)
(9.9 9.8 0)
(9.9 9.7 3)
(9.9 9.7 0)
(9.9 9.6 3)
(9.9 9.6 0)
(9.9 9.5 3)
(9.9 9.5 0)
(9.9 9.4 3)
(9.9 9.4 0)
(9.9 9.3 3)
(9.9 9.3 0)
(9.9 9.2 3)
(9.9 9.2 0)
(9.9 9.1 3)
(9.9 9.1 0)
(9.9 9 3)
(9.9 9 0)
(9.9 8.9 3)
(9.9 8.9 0)
(9.9 8.8 3)
(9.9 8.8 0)
(9.9 8.7 3)
(9.9 8.7 0)
(9.9 8.6 3)
(9.9 8.6 0)
(9.9 8.5 3)
(9.9 8.5 0)
(9.9 8.4 3)
(9.9 8.4 0)
(9.9 8.3 3)
(9.9 8.3 0)
(9.9 8.2 3)
(9.9 8.2 0)
(9.9 8.1 3)
(9.9 8.1 0)
(9.9 8 3)
(9.9 8 0)
(9.9 7.9 3)
(9.9 7.9 0)
(9.9 7.8 3)
(9.9 7.8 0)
(9.9 7.7 3)
(9.9 7.7 0)
(9.9 7.6 3)
(9.9 7.6 0)
(9.9 7.5 3)
(9.9 7.5 0)
(9.9 7.4 3)
(9.9 7.4 0)
(9.9 7.3 3)
(9.9 7.3 0)
(9.9 7.2 3)
(9.9 7.2 0)
(9.9 7.1 3)
(9.9 7.1 0)
(9.9 7 3)
(9.9 7 0)
(9.9 6.9 3)
(9.9 6.9 0)
(9.9 6.8 3)
(9.9 6.8 0)
(9.9 6.7 3)
(9.9 6.7 0)
(9.9 6.6 3)
(9.9 6.6 0)
(9.9 6.5 3)
(9.9 6.5 0)
(9.9 6.4 3)
(9.9 6.4 0)
(9.9 6.3 3)
(9.9 6.3 0)
(9.9 6.2 3)
(9.9 6.2 0)
(9.9 6.1 3)
(9.9 6.1 0)
(9.9 6 3)
(9.9 6 0)
(9.9 5.9 3)
(9.9 5.9 0)
(9.9 5.8 3)
(9.9 5.8 0)
(9.9 5.7 3)
(9.9 5.7 0)
(9.9 5.6 3)
(9.9 5.6 0)
(9.9 5.5 3)
(9.9 5.5 0)
(9.9 5.4 3)
(9.9 5.4 0)
(9.9 5.3 3)
(9.9 5.3 0)
(9.9 5.2 3)
(9.9 5.2 0)
(9.9 5.1 3)
(9.9 5.1 0)
(9.9 5 3)
(9.9 5 0)
(9.9 4.9 3)
(9.9 4.9 0)
(9.9 4.8 3)
(9.9 4.8 0)
(9.9 4.7 3)
(9.9 4.7 0)
(9.9 4.4 3)
(9.9 4.4 0)
(9.9 4.3 3)
(9.9 4.3 0)
(9.9 4.2 3)
(9.9 4.2 0)
(9.9 4.1 3)
(9.9 4.1 0)
(9.9 4 3)
(9.9 4 0)
(9.9 3.9 3)
(9.9 3.9 0)
(9.9 3.8 3)
(9.9 3.8 0)
(9.9 3.7 3)
(9.9 3.7 0)
(9.9 3.6 3)
(9.9 3.6 0)
(9.9 3.5 3)
(9.9 3.5 0)
(9.9 3.4 3)
(9.9 3.4 0)
(9.9 3.3 3)
(9.9 3.3 0)
(9.9 3.2 3)
(9.9 3.2 0)
(9.9 3.1 3)
(9.9 3.1 0)
(9.9 3 3)
(9.9 3 0)
(9.9 2.9 3)
(9.9 2.9 0)
(9.9 2.8 3)
(9.9 2.8 0)
(9.9 2.7 3)
(9.9 2.7 0)
(9.9 2.6 3)
(9.9 2.6 0)
(9.9 2.5 3)
(9.9 2.5 0)
(9.9 2.4 3)
(9.9 2.4 0)
(9.9 2.3 3)
(9.9 2.3 0)
(9.9 2.2 3)
(9.9 2.2 0)
(9.9 2.1 3)
(9.9 2.1 0)
(9.9 2 3)
(9.9 2 0)
(9.9 1.9 3)
(9.9 1.9 0)
(9.9 1.8 3)
(9.9 1.8 0)
(9.9 1.7 3)
(9.9 1.7 0)
(9.9 1.6 3)
(9.9 1.6 0)
(9.9 1.5 3)
(9.9 1.5 0)
(9.9 1.4 3)
(9.9 1.4 0)
(9.9 1.3 3)
(9.9 1.3 0)
(9.9 1.2 3)
(9.9 1.2 0)
(9.9 1.1 3)
(9.9 1.1 0)
(9.9 1 3)
(9.9 1 0)
(9.9 0.9 3)
(9.9 0.9 0)
(9.9 0.8 3)
(9.9 0.8 0)
(9.9 0.7 3)
(9.9 0.7 0)
(9.9 0.6 3)
(9.9 0.6 0)
(9.9 0.5 3)
(9.9 0.5 0)
(9.9 0.4 3)
(9.9 0.4 0)
(9.9 0.3 3)
(9.9 0.3 0)
(9.9 0.2 3)
(9.9 0.2 0)
)

// edges

1786
(
(0 1)
(1 60)
(61 0)
(60 62)
(63 61)
(62 64)
(65 63)
(64 66)
(67 65)
(66 68)
(69 67)
(68 70)
(71 69)
(70 72)
(73 71)
(72 74)
(75 73)
(74 76)
(77 75)
(76 78)
(79 77)
(78 80)
(81 79)
(80 82)
(83 81)
(82 84)
(85 83)
(84 86)
(87 85)
(86 88)
(89 87)
(88 90)
(91 89)
(90 92)
(93 91)
(92 94)
(95 93)
(94 96)
(97 95)
(96 98)
(99 97)
(98 100)
(101 99)
(100 102)
(103 101)
(102 104)
(105 103)
(104 106)
(107 105)
(106 108)
(109 107)
(108 110)
(111 109)
(110 112)
(113 111)
(112 114)
(115 113)
(114 116)
(117 115)
(116 118)
(119 117)
(118 120)
(121 119)
(120 122)
(123 121)
(122 124)
(125 123)
(124 126)
(127 125)
(126 128)
(129 127)
(128 130)
(131 129)
(130 132)
(133 131)
(132 134)
(135 133)
(134 136)
(137 135)
(136 138)
(139 137)
(138 140)
(141 139)
(140 142)
(143 141)
(142 144)
(145 143)
(144 146)
(147 145)
(146 148)
(149 147)
(148 150)
(151 149)
(150 152)
(153 151)
(152 154)
(155 153)
(154 156)
(157 155)
(156 158)
(159 157)
(158 160)
(161 159)
(160 162)
(163 161)
(162 164)
(165 163)
(164 166)
(167 165)
(166 168)
(169 167)
(168 170)
(171 169)
(170 172)
(173 171)
(172 174)
(175 173)
(174 176)
(177 175)
(176 178)
(179 177)
(178 180)
(181 179)
(180 182)
(183 181)
(182 184)
(185 183)
(184 186)
(187 185)
(186 188)
(189 187)
(188 190)
(191 189)
(190 192)
(193 191)
(192 194)
(195 193)
(194 196)
(197 195)
(196 198)
(199 197)
(198 200)
(201 199)
(200 202)
(203 201)
(202 204)
(205 203)
(204 206)
(207 205)
(206 208)
(209 207)
(208 210)
(211 209)
(210 212)
(213 211)
(212 214)
(215 213)
(214 216)
(217 215)
(216 218)
(219 217)
(218 220)
(221 219)
(220 222)
(223 221)
(222 224)
(225 223)
(224 226)
(227 225)
(226 228)
(229 227)
(228 230)
(231 229)
(230 232)
(233 231)
(232 234)
(235 233)
(234 236)
(237 235)
(236 238)
(239 237)
(238 240)
(241 239)
(240 242)
(243 241)
(242 244)
(245 243)
(244 246)
(247 245)
(246 248)
(249 247)
(248 250)
(251 249)
(250 252)
(253 251)
(252 2)
(3 253)
(2 3)
(254 1)
(0 255)
(3 256)
(257 2)
(258 254)
(255 259)
(256 260)
(261 257)
(262 258)
(259 263)
(260 264)
(265 261)
(266 262)
(263 267)
(264 268)
(269 265)
(270 266)
(267 271)
(268 272)
(273 269)
(274 270)
(271 275)
(272 276)
(277 273)
(278 274)
(275 279)
(276 280)
(281 277)
(282 278)
(279 283)
(280 284)
(285 281)
(286 282)
(283 287)
(284 288)
(289 285)
(290 286)
(287 291)
(288 292)
(293 289)
(294 290)
(291 295)
(292 296)
(297 293)
(298 294)
(295 299)
(296 300)
(301 297)
(302 298)
(299 303)
(300 304)
(305 301)
(306 302)
(303 307)
(304 308)
(309 305)
(310 306)
(307 311)
(308 312)
(313 309)
(314 310)
(311 315)
(312 316)
(317 313)
(318 314)
(315 319)
(316 320)
(321 317)
(322 318)
(319 323)
(320 324)
(325 321)
(326 322)
(323 327)
(324 328)
(329 325)
(330 326)
(327 331)
(328 332)
(333 329)
(334 330)
(331 335)
(332 336)
(337 333)
(338 334)
(335 339)
(336 340)
(341 337)
(342 338)
(339 343)
(340 344)
(345 341)
(346 342)
(343 347)
(344 348)
(349 345)
(350 346)
(347 351)
(348 352)
(353 349)
(354 350)
(351 355)
(352 356)
(357 353)
(358 354)
(355 359)
(356 360)
(361 357)
(362 358)
(359 363)
(360 364)
(365 361)
(4 362)
(363 5)
(5 4)
(366 5)
(4 367)
(368 366)
(367 369)
(370 368)
(369 371)
(372 370)
(371 373)
(374 372)
(373 375)
(376 374)
(375 377)
(378 376)
(377 379)
(380 378)
(379 381)
(382 380)
(381 383)
(384 382)
(383 385)
(386 384)
(385 387)
(388 386)
(387 389)
(390 388)
(389 391)
(392 390)
(391 393)
(394 392)
(393 395)
(396 394)
(395 397)
(398 396)
(397 399)
(400 398)
(399 401)
(402 400)
(401 403)
(404 402)
(403 405)
(406 404)
(405 407)
(408 406)
(407 409)
(410 408)
(409 411)
(412 410)
(411 413)
(414 412)
(413 415)
(416 414)
(415 417)
(418 416)
(417 419)
(420 418)
(419 421)
(422 420)
(421 423)
(424 422)
(423 425)
(426 424)
(425 427)
(428 426)
(427 429)
(430 428)
(429 431)
(432 430)
(431 433)
(434 432)
(433 435)
(46 434)
(435 47)
(436 48)
(49 437)
(438 436)
(437 439)
(440 438)
(439 441)
(442 440)
(441 443)
(444 442)
(443 445)
(446 444)
(445 447)
(448 446)
(447 449)
(450 448)
(449 451)
(452 450)
(451 453)
(454 452)
(453 455)
(456 454)
(455 457)
(458 456)
(457 459)
(460 458)
(459 461)
(462 460)
(461 463)
(464 462)
(463 465)
(466 464)
(465 467)
(468 466)
(467 469)
(364 6)
(6 468)
(7 365)
(469 7)
(7 6)
(470 47)
(46 471)
(48 472)
(473 49)
(8 9)
(9 474)
(475 8)
(474 476)
(477 475)
(476 478)
(479 477)
(478 480)
(481 479)
(480 482)
(483 481)
(482 484)
(485 483)
(484 486)
(487 485)
(486 488)
(489 487)
(488 490)
(491 489)
(490 492)
(493 491)
(492 494)
(495 493)
(494 496)
(497 495)
(496 498)
(499 497)
(498 500)
(501 499)
(500 502)
(503 501)
(502 504)
(505 503)
(504 506)
(507 505)
(506 508)
(509 507)
(508 510)
(511 509)
(510 512)
(513 511)
(512 514)
(515 513)
(514 516)
(517 515)
(516 518)
(519 517)
(518 520)
(521 519)
(520 522)
(523 521)
(522 524)
(525 523)
(524 526)
(527 525)
(526 528)
(529 527)
(528 530)
(531 529)
(530 532)
(533 531)
(532 534)
(535 533)
(534 536)
(537 535)
(536 538)
(539 537)
(538 540)
(541 539)
(540 10)
(11 541)
(10 11)
(12 13)
(13 542)
(543 12)
(542 544)
(545 543)
(544 546)
(547 545)
(546 548)
(549 547)
(548 550)
(551 549)
(550 552)
(553 551)
(552 554)
(555 553)
(554 556)
(557 555)
(556 558)
(559 557)
(558 560)
(561 559)
(560 562)
(563 561)
(562 564)
(565 563)
(564 566)
(567 565)
(566 568)
(569 567)
(568 570)
(571 569)
(570 572)
(573 571)
(572 14)
(15 573)
(14 15)
(574 9)
(8 575)
(11 576)
(577 10)
(578 470)
(471 579)
(472 580)
(581 473)
(582 13)
(12 583)
(15 584)
(585 14)
(586 574)
(575 587)
(576 588)
(589 577)
(590 578)
(579 591)
(580 592)
(593 581)
(594 582)
(583 595)
(584 596)
(597 585)
(598 586)
(587 599)
(588 600)
(601 589)
(602 590)
(591 603)
(592 604)
(605 593)
(606 594)
(595 607)
(596 608)
(609 597)
(610 598)
(599 611)
(600 612)
(613 601)
(614 602)
(603 615)
(604 616)
(617 605)
(618 606)
(607 619)
(608 620)
(621 609)
(622 610)
(611 623)
(612 624)
(625 613)
(626 614)
(615 627)
(616 628)
(629 617)
(630 618)
(619 631)
(620 632)
(633 621)
(634 622)
(623 635)
(624 636)
(637 625)
(638 626)
(627 639)
(628 640)
(641 629)
(642 630)
(631 643)
(632 644)
(645 633)
(646 634)
(635 647)
(636 648)
(649 637)
(650 638)
(639 651)
(640 652)
(653 641)
(654 642)
(643 655)
(644 656)
(657 645)
(658 646)
(647 659)
(648 660)
(661 649)
(662 650)
(651 663)
(652 664)
(665 653)
(666 654)
(655 667)
(656 668)
(669 657)
(670 658)
(659 671)
(660 672)
(673 661)
(674 662)
(663 675)
(664 676)
(677 665)
(678 666)
(667 679)
(668 680)
(681 669)
(682 670)
(671 683)
(672 684)
(685 673)
(686 674)
(675 687)
(676 688)
(689 677)
(690 678)
(679 691)
(680 692)
(693 681)
(694 682)
(683 695)
(684 696)
(697 685)
(698 686)
(687 699)
(688 700)
(701 689)
(702 690)
(691 703)
(692 704)
(705 693)
(706 694)
(695 707)
(696 708)
(709 697)
(710 698)
(699 711)
(700 712)
(713 701)
(714 702)
(703 715)
(704 716)
(717 705)
(718 706)
(707 719)
(708 720)
(721 709)
(722 710)
(711 723)
(712 724)
(725 713)
(726 714)
(715 727)
(716 728)
(729 717)
(730 718)
(719 731)
(720 732)
(733 721)
(734 722)
(723 735)
(724 736)
(737 725)
(738 726)
(727 739)
(728 740)
(741 729)
(742 730)
(731 743)
(732 744)
(745 733)
(16 734)
(735 17)
(17 16)
(746 17)
(16 747)
(748 746)
(747 749)
(750 748)
(749 751)
(752 750)
(751 753)
(754 752)
(753 755)
(756 754)
(755 757)
(758 756)
(757 759)
(760 758)
(759 761)
(762 760)
(761 763)
(764 762)
(763 765)
(766 764)
(765 767)
(768 766)
(767 769)
(770 768)
(769 771)
(772 770)
(771 773)
(774 772)
(773 775)
(776 774)
(775 777)
(778 776)
(777 779)
(50 778)
(779 51)
(736 780)
(781 737)
(782 738)
(739 783)
(740 784)
(785 741)
(786 742)
(743 787)
(744 788)
(789 745)
(790 51)
(50 791)
(780 792)
(793 781)
(794 782)
(783 795)
(784 796)
(797 785)
(18 19)
(19 798)
(799 18)
(798 800)
(801 799)
(800 802)
(803 801)
(802 804)
(805 803)
(804 806)
(807 805)
(806 808)
(809 807)
(808 810)
(811 809)
(810 812)
(813 811)
(812 814)
(815 813)
(814 816)
(817 815)
(816 818)
(819 817)
(818 820)
(821 819)
(820 822)
(823 821)
(822 824)
(825 823)
(824 826)
(827 825)
(826 828)
(829 827)
(828 20)
(21 829)
(20 21)
(830 786)
(787 831)
(788 832)
(833 789)
(834 19)
(18 835)
(21 836)
(837 20)
(838 790)
(791 839)
(792 840)
(841 793)
(842 794)
(795 843)
(796 844)
(845 797)
(846 830)
(831 847)
(832 848)
(849 833)
(850 834)
(835 851)
(836 852)
(853 837)
(854 838)
(839 855)
(840 856)
(857 841)
(858 842)
(843 859)
(844 860)
(861 845)
(862 846)
(847 863)
(848 864)
(865 849)
(866 850)
(851 867)
(852 868)
(869 853)
(870 854)
(855 871)
(856 872)
(873 857)
(874 858)
(859 875)
(860 876)
(877 861)
(878 862)
(863 879)
(864 880)
(881 865)
(882 866)
(867 883)
(868 884)
(885 869)
(886 870)
(871 887)
(872 888)
(889 873)
(890 874)
(875 891)
(876 892)
(893 877)
(894 878)
(879 895)
(880 896)
(897 881)
(898 882)
(883 899)
(884 900)
(901 885)
(902 886)
(887 903)
(888 904)
(905 889)
(906 890)
(891 907)
(892 908)
(909 893)
(910 894)
(895 911)
(896 912)
(913 897)
(914 898)
(899 915)
(900 916)
(917 901)
(918 902)
(903 919)
(904 920)
(921 905)
(922 906)
(907 923)
(908 924)
(925 909)
(926 910)
(911 927)
(912 928)