// -*- C++ -*-
// File generated by PyFoam - sorry for the ugliness

FoamFile
{
 version 2.0;
 format ascii;
 class volVectorField;
 location "0";
 object U;
}

dimensions [ 0 1 -1 0 0 0 0 ];

internalField uniform (0 0 0);

boundaryField
{
  auto0
  {
    type noSlip;
  }
  auto1
  {
    refValue uniform -0.5 ;
    type surfaceNormalFixedValue;
  }
  auto2
  {
    type noSlip;
  }
  auto3
  {
    type noSlip;
  }
  auto4
  {
    type zeroGradient;
  }
  auto5
  {
    type noSlip;
  }
} 	// ************************************************************************* //

