/*--------------------------------*- C++ -*----------------------------------*\
  =========                 |
  \\      /  F ield         | OpenFOAM: The Open Source CFD Toolbox
   \\    /   O peration     | Website:  https://openfoam.org
    \\  /    A nd           | Version:  7
     \\/     M anipulation  |
\*---------------------------------------------------------------------------*/
FoamFile
{
    version     2.0;
    format      ascii;
    class       featureEdgeMesh;
    location    "constant/triSurface";
    object      rand_env_1_flow_vol.eMesh;
}
// * * * * * * * * * * * * * * * * * * * * * * * * * * * * * * * * * * * * * //


// points:

2168
(
(0.2142857 9.785714 2)
(0.2142857 9.785714 0)
(0.2142857 6.857143 0)
(0.2142857 6.857143 2)
(0.2142857 6.785714 2)
(0.2142857 6.785714 0)
(0.2142857 0.2142857 0)
(0.2142857 0.2142857 2)
(2 9.785714 0)
(2 9.785714 2)
(2 6.857143 2)
(2 6.857143 0)
(2.071429 9.785714 2)
(2.071429 9.785714 0)
(2.428571 4 2)
(2.428571 4 0)
(2.428571 3.357143 0)
(2.428571 3.357143 2)
(3.285714 4 0)
(3.285714 4 2)
(3.285714 3.357143 2)
(3.285714 3.357143 0)
(4.071429 8.5 2)
(4.071429 8.5 0)
(4.071429 7.857143 0)
(4.071429 7.857143 2)
(4.785714 0.2142857 2)
(4.785714 0.2142857 0)
(4.857143 0.2142857 0)
(4.857143 0.2142857 2)
(5 8.5 0)
(5 8.5 2)
(5 7.857143 2)
(5 7.857143 0)
(6.642857 2.428571 2)
(6.642857 2.428571 0)
(6.642857 1.857143 0)
(6.642857 1.857143 2)
(7.428571 9.785714 0)
(7.428571 9.785714 2)
(7.5 9.785714 2)
(7.5 9.785714 0)
(7.571429 2.428571 0)
(7.571429 2.428571 2)
(7.571429 1.857143 2)
(7.571429 1.857143 0)
(9.785714 9.785714 0)
(9.785714 9.785714 2)
(9.785714 0.2142857 2)
(9.785714 0.2142857 0)
(2.071429 6.785714 0)
(2.071429 6.785714 2)
(2.357143 4.071429 2)
(2.357143 4.071429 0)
(2.357143 3.285714 2)
(2.357143 3.285714 0)
(3.357143 4.071429 2)
(3.357143 4.071429 0)
(3.357143 3.285714 0)
(3.357143 3.285714 2)
(4 8.571428 2)
(4 8.571428 0)
(4 7.785714 2)
(4 7.785714 0)
(4.785714 2.142857 2)
(4.785714 2.142857 0)
(4.857143 2.142857 2)
(4.857143 2.142857 0)
(5.071429 8.571428 2)
(5.071429 8.571428 0)
(5.071429 7.785714 0)
(5.071429 7.785714 2)
(6.571429 2.5 2)
(6.571429 2.5 0)
(6.571429 1.785714 2)
(6.571429 1.785714 0)
(7.428571 6.857143 2)
(7.428571 6.857143 0)
(7.5 6.857143 0)
(7.5 6.857143 2)
(7.642857 2.5 2)
(7.642857 2.5 0)
(7.642857 1.785714 0)
(7.642857 1.785714 2)
(0.2142857 9.714286 0)
(0.2142857 9.714286 2)
(0.2142857 9.642858 0)
(0.2142857 9.642858 2)
(0.2142857 9.571428 0)
(0.2142857 9.571428 2)
(0.2142857 9.5 0)
(0.2142857 9.5 2)
(0.2142857 9.428572 0)
(0.2142857 9.428572 2)
(0.2142857 9.357142 0)
(0.2142857 9.357142 2)
(0.2142857 9.285714 0)
(0.2142857 9.285714 2)
(0.2142857 9.214286 0)
(0.2142857 9.214286 2)
(0.2142857 9.142858 0)
(0.2142857 9.142858 2)
(0.2142857 9.071428 0)
(0.2142857 9.071428 2)
(0.2142857 9 0)
(0.2142857 9 2)
(0.2142857 8.928572 0)
(0.2142857 8.928572 2)
(0.2142857 8.857142 0)
(0.2142857 8.857142 2)
(0.2142857 8.785714 0)
(0.2142857 8.785714 2)
(0.2142857 8.714286 0)
(0.2142857 8.714286 2)
(0.2142857 8.642858 0)
(0.2142857 8.642858 2)
(0.2142857 8.571428 0)
(0.2142857 8.571428 2)
(0.2142857 8.5 0)
(0.2142857 8.5 2)
(0.2142857 8.428572 0)
(0.2142857 8.428572 2)
(0.2142857 8.357142 0)
(0.2142857 8.357142 2)
(0.2142857 8.285714 0)
(0.2142857 8.285714 2)
(0.2142857 8.214286 0)
(0.2142857 8.214286 2)
(0.2142857 8.142858 0)
(0.2142857 8.142858 2)
(0.2142857 8.071428 0)
(0.2142857 8.071428 2)
(0.2142857 8 0)
(0.2142857 8 2)
(0.2142857 7.928571 0)
(0.2142857 7.928571 2)
(0.2142857 7.857143 0)
(0.2142857 7.857143 2)
(0.2142857 7.785714 0)
(0.2142857 7.785714 2)
(0.2142857 7.714286 0)
(0.2142857 7.714286 2)
(0.2142857 7.642857 0)
(0.2142857 7.642857 2)
(0.2142857 7.571429 0)
(0.2142857 7.571429 2)
(0.2142857 7.5 0)
(0.2142857 7.5 2)
(0.2142857 7.428571 0)
(0.2142857 7.428571 2)
(0.2142857 7.357143 0)
(0.2142857 7.357143 2)
(0.2142857 7.285714 0)
(0.2142857 7.285714 2)
(0.2142857 7.214286 0)
(0.2142857 7.214286 2)
(0.2142857 7.142857 0)
(0.2142857 7.142857 2)
(0.2142857 7.071429 0)
(0.2142857 7.071429 2)
(0.2142857 7 0)
(0.2142857 7 2)
(0.2142857 6.928571 0)
(0.2142857 6.928571 2)
(0.2142857 6.714286 0)
(0.2142857 6.714286 2)
(0.2142857 6.642857 0)
(0.2142857 6.642857 2)
(0.2142857 6.571429 0)
(0.2142857 6.571429 2)
(0.2142857 6.5 0)
(0.2142857 6.5 2)
(0.2142857 6.428571 0)
(0.2142857 6.428571 2)
(0.2142857 6.357143 0)
(0.2142857 6.357143 2)
(0.2142857 6.285714 0)
(0.2142857 6.285714 2)
(0.2142857 6.214286 0)
(0.2142857 6.214286 2)
(0.2142857 6.142857 0)
(0.2142857 6.142857 2)
(0.2142857 6.071429 0)
(0.2142857 6.071429 2)
(0.2142857 6 0)
(0.2142857 6 2)
(0.2142857 5.928571 0)
(0.2142857 5.928571 2)
(0.2142857 5.857143 0)
(0.2142857 5.857143 2)
(0.2142857 5.785714 0)
(0.2142857 5.785714 2)
(0.2142857 5.714286 0)
(0.2142857 5.714286 2)
(0.2142857 5.642857 0)
(0.2142857 5.642857 2)
(0.2142857 5.571429 0)
(0.2142857 5.571429 2)
(0.2142857 5.5 0)
(0.2142857 5.5 2)
(0.2142857 5.428571 0)
(0.2142857 5.428571 2)
(0.2142857 5.357143 0)
(0.2142857 5.357143 2)
(0.2142857 5.285714 0)
(0.2142857 5.285714 2)
(0.2142857 5.214286 0)
(0.2142857 5.214286 2)
(0.2142857 5.142857 0)
(0.2142857 5.142857 2)
(0.2142857 5.071429 0)
(0.2142857 5.071429 2)
(0.2142857 5 0)
(0.2142857 5 2)
(0.2142857 4.928571 0)
(0.2142857 4.928571 2)
(0.2142857 4.857143 0)
(0.2142857 4.857143 2)
(0.2142857 4.785714 0)
(0.2142857 4.785714 2)
(0.2142857 4.714286 0)
(0.2142857 4.714286 2)
(0.2142857 4.642857 0)
(0.2142857 4.642857 2)
(0.2142857 4.571429 0)
(0.2142857 4.571429 2)
(0.2142857 4.5 0)
(0.2142857 4.5 2)
(0.2142857 4.428571 0)
(0.2142857 4.428571 2)
(0.2142857 4.357143 0)
(0.2142857 4.357143 2)
(0.2142857 4.285714 0)
(0.2142857 4.285714 2)
(0.2142857 4.214286 0)
(0.2142857 4.214286 2)
(0.2142857 4.142857 0)
(0.2142857 4.142857 2)
(0.2142857 4.071429 0)
(0.2142857 4.071429 2)
(0.2142857 4 0)
(0.2142857 4 2)
(0.2142857 3.928571 0)
(0.2142857 3.928571 2)
(0.2142857 3.857143 0)
(0.2142857 3.857143 2)
(0.2142857 3.785714 0)
(0.2142857 3.785714 2)
(0.2142857 3.714286 0)
(0.2142857 3.714286 2)
(0.2142857 3.642857 0)
(0.2142857 3.642857 2)
(0.2142857 3.571429 0)
(0.2142857 3.571429 2)
(0.2142857 3.5 0)
(0.2142857 3.5 2)
(0.2142857 3.428571 0)
(0.2142857 3.428571 2)
(0.2142857 3.357143 0)
(0.2142857 3.357143 2)
(0.2142857 3.285714 0)
(0.2142857 3.285714 2)
(0.2142857 3.214286 0)
(0.2142857 3.214286 2)
(0.2142857 3.142857 0)
(0.2142857 3.142857 2)
(0.2142857 3.071429 0)
(0.2142857 3.071429 2)
(0.2142857 3 0)
(0.2142857 3 2)
(0.2142857 2.928571 0)
(0.2142857 2.928571 2)
(0.2142857 2.857143 0)
(0.2142857 2.857143 2)
(0.2142857 2.785714 0)
(0.2142857 2.785714 2)
(0.2142857 2.714286 0)
(0.2142857 2.714286 2)
(0.2142857 2.642857 0)
(0.2142857 2.642857 2)
(0.2142857 2.571429 0)
(0.2142857 2.571429 2)
(0.2142857 2.5 0)
(0.2142857 2.5 2)
(0.2142857 2.428571 0)
(0.2142857 2.428571 2)
(0.2142857 2.357143 0)
(0.2142857 2.357143 2)
(0.2142857 2.285714 0)
(0.2142857 2.285714 2)
(0.2142857 2.214286 0)
(0.2142857 2.214286 2)
(0.2142857 2.142857 0)
(0.2142857 2.142857 2)
(0.2142857 2.071429 0)
(0.2142857 2.071429 2)
(0.2142857 2 0)
(0.2142857 2 2)
(0.2142857 1.928571 0)
(0.2142857 1.928571 2)
(0.2142857 1.857143 0)
(0.2142857 1.857143 2)
(0.2142857 1.785714 0)
(0.2142857 1.785714 2)
(0.2142857 1.714286 0)
(0.2142857 1.714286 2)
(0.2142857 1.642857 0)
(0.2142857 1.642857 2)
(0.2142857 1.571429 0)
(0.2142857 1.571429 2)
(0.2142857 1.5 0)
(0.2142857 1.5 2)
(0.2142857 1.428571 0)
(0.2142857 1.428571 2)
(0.2142857 1.357143 0)
(0.2142857 1.357143 2)
(0.2142857 1.285714 0)
(0.2142857 1.285714 2)
(0.2142857 1.214286 0)
(0.2142857 1.214286 2)
(0.2142857 1.142857 0)
(0.2142857 1.142857 2)
(0.2142857 1.071429 0)
(0.2142857 1.071429 2)
(0.2142857 1 0)
(0.2142857 1 2)
(0.2142857 0.9285714 0)
(0.2142857 0.9285714 2)
(0.2142857 0.8571429 0)
(0.2142857 0.8571429 2)
(0.2142857 0.7857143 0)
(0.2142857 0.7857143 2)
(0.2142857 0.7142857 0)
(0.2142857 0.7142857 2)
(0.2142857 0.6428571 0)
(0.2142857 0.6428571 2)
(0.2142857 0.5714286 0)
(0.2142857 0.5714286 2)
(0.2142857 0.5 0)
(0.2142857 0.5 2)
(0.2142857 0.4285714 0)
(0.2142857 0.4285714 2)
(0.2142857 0.3571429 0)
(0.2142857 0.3571429 2)
(0.2142857 0.2857143 0)
(0.2142857 0.2857143 2)
(0.2857143 9.785714 0)
(0.2857143 9.785714 2)
(0.2857143 6.857143 2)
(0.2857143 6.857143 0)
(0.2857143 6.785714 0)
(0.2857143 6.785714 2)
(0.2857143 0.2142857 2)
(0.2857143 0.2142857 0)
(0.3571429 9.785714 0)
(0.3571429 9.785714 2)
(0.3571429 6.857143 2)
(0.3571429 6.857143 0)
(0.3571429 6.785714 0)
(0.3571429 6.785714 2)
(0.3571429 0.2142857 2)
(0.3571429 0.2142857 0)
(0.4285714 9.785714 0)
(0.4285714 9.785714 2)
(0.4285714 6.857143 2)
(0.4285714 6.857143 0)
(0.4285714 6.785714 0)
(0.4285714 6.785714 2)
(0.4285714 0.2142857 2)
(0.4285714 0.2142857 0)
(0.5 9.785714 0)
(0.5 9.785714 2)
(0.5 6.857143 2)
(0.5 6.857143 0)
(0.5 6.785714 0)
(0.5 6.785714 2)
(0.5 0.2142857 2)
(0.5 0.2142857 0)
(0.5714286 9.785714 0)
(0.5714286 9.785714 2)
(0.5714286 6.857143 2)
(0.5714286 6.857143 0)
(0.5714286 6.785714 0)
(0.5714286 6.785714 2)
(0.5714286 0.2142857 2)
(0.5714286 0.2142857 0)
(0.6428571 9.785714 0)
(0.6428571 9.785714 2)
(0.6428571 6.857143 2)
(0.6428571 6.857143 0)
(0.6428571 6.785714 0)
(0.6428571 6.785714 2)
(0.6428571 0.2142857 2)
(0.6428571 0.2142857 0)
(0.7142857 9.785714 0)
(0.7142857 9.785714 2)
(0.7142857 6.857143 2)
(0.7142857 6.857143 0)
(0.7142857 6.785714 0)
(0.7142857 6.785714 2)
(0.7142857 0.2142857 2)
(0.7142857 0.2142857 0)
(0.7857143 9.785714 0)
(0.7857143 9.785714 2)
(0.7857143 6.857143 2)
(0.7857143 6.857143 0)
(0.7857143 6.785714 0)
(0.7857143 6.785714 2)
(0.7857143 0.2142857 2)
(0.7857143 0.2142857 0)
(0.8571429 9.785714 0)
(0.8571429 9.785714 2)
(0.8571429 6.857143 2)
(0.8571429 6.857143 0)
(0.8571429 6.785714 0)
(0.8571429 6.785714 2)
(0.8571429 0.2142857 2)
(0.8571429 0.2142857 0)
(0.9285714 9.785714 0)
(0.9285714 9.785714 2)
(0.9285714 6.857143 2)
(0.9285714 6.857143 0)
(0.9285714 6.785714 0)
(0.9285714 6.785714 2)
(0.9285714 0.2142857 2)
(0.9285714 0.2142857 0)
(1 9.785714 0)
(1 9.785714 2)
(1 6.857143 2)
(1 6.857143 0)
(1 6.785714 0)
(1 6.785714 2)
(1 0.2142857 2)
(1 0.2142857 0)
(1.071429 9.785714 0)
(1.071429 9.785714 2)
(1.071429 6.857143 2)
(1.071429 6.857143 0)
(1.071429 6.785714 0)
(1.071429 6.785714 2)
(1.071429 0.2142857 2)
(1.071429 0.2142857 0)
(1.142857 9.785714 0)
(1.142857 9.785714 2)
(1.142857 6.857143 2)
(1.142857 6.857143 0)
(1.142857 6.785714 0)
(1.142857 6.785714 2)
(1.142857 0.2142857 2)
(1.142857 0.2142857 0)
(1.214286 9.785714 0)
(1.214286 9.785714 2)
(1.214286 6.857143 2)
(1.214286 6.857143 0)
(1.214286 6.785714 0)
(1.214286 6.785714 2)
(1.214286 0.2142857 2)
(1.214286 0.2142857 0)
(1.285714 9.785714 0)
(1.285714 9.785714 2)
(1.285714 6.857143 2)
(1.285714 6.857143 0)
(1.285714 6.785714 0)
(1.285714 6.785714 2)
(1.285714 0.2142857 2)
(1.285714 0.2142857 0)
(1.357143 9.785714 0)
(1.357143 9.785714 2)
(1.357143 6.857143 2)
(1.357143 6.857143 0)
(1.357143 6.785714 0)
(1.357143 6.785714 2)
(1.357143 0.2142857 2)
(1.357143 0.2142857 0)
(1.428571 9.785714 0)
(1.428571 9.785714 2)
(1.428571 6.857143 2)
(1.428571 6.857143 0)
(1.428571 6.785714 0)
(1.428571 6.785714 2)
(1.428571 0.2142857 2)
(1.428571 0.2142857 0)
(1.5 9.785714 0)
(1.5 9.785714 2)
(1.5 6.857143 2)
(1.5 6.857143 0)
(1.5 6.785714 0)
(1.5 6.785714 2)
(1.5 0.2142857 2)
(1.5 0.2142857 0)
(1.571429 9.785714 0)
(1.571429 9.785714 2)
(1.571429 6.857143 2)
(1.571429 6.857143 0)
(1.571429 6.785714 0)
(1.571429 6.785714 2)
(1.571429 0.2142857 2)
(1.571429 0.2142857 0)
(1.642857 9.785714 0)
(1.642857 9.785714 2)
(1.642857 6.857143 2)
(1.642857 6.857143 0)
(1.642857 6.785714 0)
(1.642857 6.785714 2)
(1.642857 0.2142857 2)
(1.642857 0.2142857 0)
(1.714286 9.785714 0)
(1.714286 9.785714 2)
(1.714286 6.857143 2)
(1.714286 6.857143 0)
(1.714286 6.785714 0)
(1.714286 6.785714 2)
(1.714286 0.2142857 2)
(1.714286 0.2142857 0)
(1.785714 9.785714 0)
(1.785714 9.785714 2)
(1.785714 6.857143 2)
(1.785714 6.857143 0)
(1.785714 6.785714 0)
(1.785714 6.785714 2)
(1.785714 0.2142857 2)
(1.785714 0.2142857 0)
(1.857143 9.785714 0)
(1.857143 9.785714 2)
(1.857143 6.857143 2)
(1.857143 6.857143 0)
(1.857143 6.785714 0)
(1.857143 6.785714 2)
(1.857143 0.2142857 2)
(1.857143 0.2142857 0)
(1.928571 9.785714 0)
(1.928571 9.785714 2)
(1.928571 6.857143 2)
(1.928571 6.857143 0)
(1.928571 6.785714 0)
(1.928571 6.785714 2)
(1.928571 0.2142857 2)
(1.928571 0.2142857 0)
(2 9.714286 2)
(2 9.714286 0)
(2 9.642858 2)
(2 9.642858 0)
(2 9.571428 2)
(2 9.571428 0)
(2 9.5 2)
(2 9.5 0)
(2 9.428572 2)
(2 9.428572 0)
(2 9.357142 2)
(2 9.357142 0)
(2 9.285714 2)
(2 9.285714 0)
(2 9.214286 2)
(2 9.214286 0)
(2 9.142858 2)
(2 9.142858 0)
(2 9.071428 2)
(2 9.071428 0)
(2 9 2)
(2 9 0)
(2 8.928572 2)
(2 8.928572 0)
(2 8.857142 2)
(2 8.857142 0)
(2 8.785714 2)
(2 8.785714 0)
(2 8.714286 2)
(2 8.714286 0)
(2 8.642858 2)
(2 8.642858 0)
(2 8.571428 2)
(2 8.571428 0)
(2 8.5 2)
(2 8.5 0)
(2 8.428572 2)
(2 8.428572 0)
(2 8.357142 2)
(2 8.357142 0)
(2 8.285714 2)
(2 8.285714 0)
(2 8.214286 2)
(2 8.214286 0)
(2 8.142858 2)
(2 8.142858 0)
(2 8.071428 2)
(2 8.071428 0)
(2 8 2)
(2 8 0)
(2 7.928571 2)
(2 7.928571 0)
(2 7.857143 2)
(2 7.857143 0)
(2 7.785714 2)
(2 7.785714 0)
(2 7.714286 2)
(2 7.714286 0)
(2 7.642857 2)
(2 7.642857 0)
(2 7.571429 2)
(2 7.571429 0)
(2 7.5 2)
(2 7.5 0)
(2 7.428571 2)
(2 7.428571 0)
(2 7.357143 2)
(2 7.357143 0)
(2 7.285714 2)
(2 7.285714 0)
(2 7.214286 2)
(2 7.214286 0)
(2 7.142857 2)
(2 7.142857 0)
(2 7.071429 2)
(2 7.071429 0)
(2 7 2)
(2 7 0)
(2 6.928571 2)
(2 6.928571 0)
(2 6.785714 0)
(2 6.785714 2)
(2 0.2142857 2)
(2 0.2142857 0)
(2.071429 0.2142857 2)
(2.071429 0.2142857 0)
(2.071429 9.714286 0)
(2.071429 9.714286 2)
(2.071429 9.642858 0)
(2.071429 9.642858 2)
(2.071429 9.571428 0)
(2.071429 9.571428 2)
(2.071429 9.5 0)
(2.071429 9.5 2)
(2.071429 9.428572 0)
(2.071429 9.428572 2)
(2.071429 9.357142 0)
(2.071429 9.357142 2)
(2.071429 9.285714 0)
(2.071429 9.285714 2)
(2.071429 9.214286 0)
(2.071429 9.214286 2)
(2.071429 9.142858 0)
(2.071429 9.142858 2)
(2.071429 9.071428 0)
(2.071429 9.071428 2)
(2.071429 9 0)
(2.071429 9 2)
(2.071429 8.928572 0)
(2.071429 8.928572 2)
(2.071429 8.857142 0)
(2.071429 8.857142 2)
(2.071429 8.785714 0)
(2.071429 8.785714 2)
(2.071429 8.714286 0)
(2.071429 8.714286 2)
(2.071429 8.642858 0)
(2.071429 8.642858 2)
(2.071429 8.571428 0)
(2.071429 8.571428 2)
(2.071429 8.5 0)
(2.071429 8.5 2)
(2.071429 8.428572 0)
(2.071429 8.428572 2)
(2.071429 8.357142 0)
(2.071429 8.357142 2)
(2.071429 8.285714 0)
(2.071429 8.285714 2)
(2.071429 8.214286 0)
(2.071429 8.214286 2)
(2.071429 8.142858 0)
(2.071429 8.142858 2)
(2.071429 8.071428 0)
(2.071429 8.071428 2)
(2.071429 8 0)
(2.071429 8 2)
(2.071429 7.928571 0)
(2.071429 7.928571 2)
(2.071429 7.857143 0)
(2.071429 7.857143 2)
(2.071429 7.785714 0)
(2.071429 7.785714 2)
(2.071429 7.714286 0)
(2.071429 7.714286 2)
(2.071429 7.642857 0)
(2.071429 7.642857 2)
(2.071429 7.571429 0)
(2.071429 7.571429 2)
(2.071429 7.5 0)
(2.071429 7.5 2)
(2.071429 7.428571 0)
(2.071429 7.428571 2)
(2.071429 7.357143 0)
(2.071429 7.357143 2)
(2.071429 7.285714 0)
(2.071429 7.285714 2)
(2.071429 7.214286 0)
(2.071429 7.214286 2)
(2.071429 7.142857 0)
(2.071429 7.142857 2)
(2.071429 7.071429 0)
(2.071429 7.071429 2)
(2.071429 7 0)
(2.071429 7 2)
(2.071429 6.928571 0)
(2.071429 6.928571 2)
(2.071429 6.857143 0)
(2.071429 6.857143 2)
(2.142857 9.785714 0)
(2.142857 9.785714 2)
(2.142857 0.2142857 2)
(2.142857 0.2142857 0)
(2.214286 9.785714 0)
(2.214286 9.785714 2)
(2.214286 0.2142857 2)
(2.214286 0.2142857 0)
(2.285714 9.785714 0)
(2.285714 9.785714 2)
(2.285714 0.2142857 2)
(2.285714 0.2142857 0)
(2.357143 9.785714 0)
(2.357143 9.785714 2)
(2.357143 4 2)
(2.357143 4 0)
(2.357143 3.928571 2)
(2.357143 3.928571 0)
(2.357143 3.857143 2)
(2.357143 3.857143 0)
(2.357143 3.785714 2)
(2.357143 3.785714 0)
(2.357143 3.714286 2)
(2.357143 3.714286 0)
(2.357143 3.642857 2)
(2.357143 3.642857 0)
(2.357143 3.571429 2)
(2.357143 3.571429 0)
(2.357143 3.5 2)
(2.357143 3.5 0)
(2.357143 3.428571 2)
(2.357143 3.428571 0)
(2.357143 3.357143 2)
(2.357143 3.357143 0)
(2.357143 0.2142857 2)
(2.357143 0.2142857 0)
(2.428571 9.785714 0)
(2.428571 9.785714 2)
(2.428571 4.071429 2)
(2.428571 4.071429 0)
(2.428571 3.285714 0)
(2.428571 3.285714 2)
(2.428571 0.2142857 2)
(2.428571 0.2142857 0)
(2.428571 3.928571 0)
(2.428571 3.928571 2)
(2.428571 3.857143 0)
(2.428571 3.857143 2)
(2.428571 3.785714 0)
(2.428571 3.785714 2)
(2.428571 3.714286 0)
(2.428571 3.714286 2)
(2.428571 3.642857 0)
(2.428571 3.642857 2)
(2.428571 3.571429 0)
(2.428571 3.571429 2)
(2.428571 3.5 0)
(2.428571 3.5 2)
(2.428571 3.428571 0)
(2.428571 3.428571 2)
(2.5 9.785714 0)
(2.5 9.785714 2)
(2.5 4.071429 2)
(2.5 4.071429 0)
(2.5 4 0)
(2.5 4 2)
(2.5 3.357143 2)
(2.5 3.357143 0)
(2.5 3.285714 0)
(2.5 3.285714 2)
(2.5 0.2142857 2)
(2.5 0.2142857 0)
(2.571429 9.785714 0)
(2.571429 9.785714 2)
(2.571429 4.071429 2)
(2.571429 4.071429 0)
(2.571429 4 0)
(2.571429 4 2)
(2.571429 3.357143 2)
(2.571429 3.357143 0)
(2.571429 3.285714 0)
(2.571429 3.285714 2)
(2.571429 0.2142857 2)
(2.571429 0.2142857 0)
(2.642857 9.785714 0)
(2.642857 9.785714 2)
(2.642857 4.071429 2)
(2.642857 4.071429 0)
(2.642857 4 0)
(2.642857 4 2)
(2.642857 3.357143 2)
(2.642857 3.357143 0)
(2.642857 3.285714 0)
(2.642857 3.285714 2)
(2.642857 0.2142857 2)
(2.642857 0.2142857 0)
(2.714286 9.785714 0)
(2.714286 9.785714 2)
(2.714286 4.071429 2)
(2.714286 4.071429 0)
(2.714286 4 0)
(2.714286 4 2)
(2.714286 3.357143 2)
(2.714286 3.357143 0)
(2.714286 3.285714 0)
(2.714286 3.285714 2)
(2.714286 0.2142857 2)
(2.714286 0.2142857 0)
(2.785714 9.785714 0)
(2.785714 9.785714 2)
(2.785714 4.071429 2)
(2.785714 4.071429 0)
(2.785714 4 0)
(2.785714 4 2)
(2.785714 3.357143 2)
(2.785714 3.357143 0)
(2.785714 3.285714 0)
(2.785714 3.285714 2)
(2.785714 0.2142857 2)
(2.785714 0.2142857 0)
(2.857143 9.785714 0)
(2.857143 9.785714 2)
(2.857143 4.071429 2)
(2.857143 4.071429 0)
(2.857143 4 0)
(2.857143 4 2)
(2.857143 3.357143 2)
(2.857143 3.357143 0)
(2.857143 3.285714 0)
(2.857143 3.285714 2)
(2.857143 0.2142857 2)
(2.857143 0.2142857 0)
(2.928571 9.785714 0)
(2.928571 9.785714 2)
(2.928571 4.071429 2)
(2.928571 4.071429 0)
(2.928571 4 0)
(2.928571 4 2)
(2.928571 3.357143 2)
(2.928571 3.357143 0)
(2.928571 3.285714 0)
(2.928571 3.285714 2)
(2.928571 0.2142857 2)
(2.928571 0.2142857 0)
(3 9.785714 0)
(3 9.785714 2)
(3 4.071429 2)
(3 4.071429 0)
(3 4 0)
(3 4 2)
(3 3.357143 2)
(3 3.357143 0)
(3 3.285714 0)
(3 3.285714 2)
(3 0.2142857 2)
(3 0.2142857 0)
(3.071429 9.785714 0)
(3.071429 9.785714 2)
(3.071429 4.071429 2)
(3.071429 4.071429 0)
(3.071429 4 0)
(3.071429 4 2)
(3.071429 3.357143 2)
(3.071429 3.357143 0)
(3.071429 3.285714 0)
(3.071429 3.285714 2)
(3.071429 0.2142857 2)
(3.071429 0.2142857 0)
(3.142857 9.785714 0)
(3.142857 9.785714 2)
(3.142857 4.071429 2)
(3.142857 4.071429 0)
(3.142857 4 0)
(3.142857 4 2)
(3.142857 3.357143 2)
(3.142857 3.357143 0)
(3.142857 3.285714 0)
(3.142857 3.285714 2)
(3.142857 0.2142857 2)
(3.142857 0.2142857 0)
(3.214286 9.785714 0)
(3.214286 9.785714 2)
(3.214286 4.071429 2)
(3.214286 4.071429 0)
(3.214286 4 0)
(3.214286 4 2)
(3.214286 3.357143 2)
(3.214286 3.357143 0)
(3.214286 3.285714 0)
(3.214286 3.285714 2)
(3.214286 0.2142857 2)
(3.214286 0.2142857 0)
(3.285714 9.785714 0)
(3.285714 9.785714 2)
(3.285714 4.071429 2)
(3.285714 4.071429 0)
(3.285714 3.928571 2)
(3.285714 3.928571 0)
(3.285714 3.857143 2)
(3.285714 3.857143 0)
(3.285714 3.785714 2)
(3.285714 3.785714 0)
(3.285714 3.714286 2)
(3.285714 3.714286 0)
(3.285714 3.642857 2)
(3.285714 3.642857 0)
(3.285714 3.571429 2)
(3.285714 3.571429 0)
(3.285714 3.5 2)
(3.285714 3.5 0)
(3.285714 3.428571 2)
(3.285714 3.428571 0)
(3.285714 3.285714 0)
(3.285714 3.285714 2)
(3.285714 0.2142857 2)
(3.285714 0.2142857 0)
(3.357143 9.785714 0)
(3.357143 9.785714 2)
(3.357143 0.2142857 2)
(3.357143 0.2142857 0)
(3.357143 4 0)
(3.357143 4 2)
(3.357143 3.928571 0)
(3.357143 3.928571 2)
(3.357143 3.857143 0)
(3.357143 3.857143 2)
(3.357143 3.785714 0)
(3.357143 3.785714 2)
(3.357143 3.714286 0)
(3.357143 3.714286 2)
(3.357143 3.642857 0)
(3.357143 3.642857 2)
(3.357143 3.571429 0)
(3.357143 3.571429 2)
(3.357143 3.5 0)
(3.357143 3.5 2)
(3.357143 3.428571 0)
(3.357143 3.428571 2)
(3.357143 3.357143 0)
(3.357143 3.357143 2)
(3.428571 9.785714 0)
(3.428571 9.785714 2)
(3.428571 0.2142857 2)
(3.428571 0.2142857 0)
(3.5 9.785714 0)
(3.5 9.785714 2)
(3.5 0.2142857 2)
(3.5 0.2142857 0)
(3.571429 9.785714 0)
(3.571429 9.785714 2)
(3.571429 0.2142857 2)
(3.571429 0.2142857 0)
(3.642857 9.785714 0)
(3.642857 9.785714 2)
(3.642857 0.2142857 2)
(3.642857 0.2142857 0)
(3.714286 9.785714 0)
(3.714286 9.785714 2)
(3.714286 0.2142857 2)
(3.714286 0.2142857 0)
(3.785714 9.785714 0)
(3.785714 9.785714 2)
(3.785714 0.2142857 2)
(3.785714 0.2142857 0)
(3.857143 9.785714 0)
(3.857143 9.785714 2)
(3.857143 0.2142857 2)
(3.857143 0.2142857 0)
(3.928571 9.785714 0)
(3.928571 9.785714 2)
(3.928571 0.2142857 2)
(3.928571 0.2142857 0)
(4 9.785714 0)
(4 9.785714 2)
(4 8.5 2)
(4 8.5 0)
(4 8.428572 2)
(4 8.428572 0)
(4 8.357142 2)
(4 8.357142 0)
(4 8.285714 2)
(4 8.285714 0)
(4 8.214286 2)
(4 8.214286 0)
(4 8.142858 2)
(4 8.142858 0)
(4 8.071428 2)
(4 8.071428 0)
(4 8 2)
(4 8 0)
(4 7.928571 2)
(4 7.928571 0)
(4 7.857143 2)
(4 7.857143 0)
(4 0.2142857 2)
(4 0.2142857 0)
(4.071429 9.785714 0)
(4.071429 9.785714 2)
(4.071429 8.571428 2)
(4.071429 8.571428 0)
(4.071429 7.785714 0)
(4.071429 7.785714 2)
(4.071429 0.2142857 2)
(4.071429 0.2142857 0)
(4.071429 8.428572 0)
(4.071429 8.428572 2)
(4.071429 8.357142 0)
(4.071429 8.357142 2)
(4.071429 8.285714 0)
(4.071429 8.285714 2)
(4.071429 8.214286 0)
(4.071429 8.214286 2)
(4.071429 8.142858 0)
(4.071429 8.142858 2)
(4.071429 8.071428 0)
(4.071429 8.071428 2)
(4.071429 8 0)
(4.071429 8 2)
(4.071429 7.928571 0)
(4.071429 7.928571 2)
(4.142857 9.785714 0)
(4.142857 9.785714 2)
(4.142857 8.571428 2)
(4.142857 8.571428 0)
(4.142857 8.5 0)
(4.142857 8.5 2)
(4.142857 7.857143 2)
(4.142857 7.857143 0)
(4.142857 7.785714 0)
(4.142857 7.785714 2)
(4.142857 0.2142857 2)
(4.142857 0.2142857 0)
(4.214286 9.785714 0)
(4.214286 9.785714 2)
(4.214286 8.571428 2)
(4.214286 8.571428 0)
(4.214286 8.5 0)
(4.214286 8.5 2)
(4.214286 7.857143 2)
(4.214286 7.857143 0)
(4.214286 7.785714 0)
(4.214286 7.785714 2)
(4.214286 0.2142857 2)
(4.214286 0.2142857 0)
(4.285714 9.785714 0)
(4.285714 9.785714 2)
(4.285714 8.571428 2)
(4.285714 8.571428 0)
(4.285714 8.5 0)
(4.285714 8.5 2)
(4.285714 7.857143 2)
(4.285714 7.857143 0)
(4.285714 7.785714 0)
(4.285714 7.785714 2)
(4.285714 0.2142857 2)
(4.285714 0.2142857 0)
(4.357143 9.785714 0)
(4.357143 9.785714 2)
(4.357143 8.571428 2)
(4.357143 8.571428 0)
(4.357143 8.5 0)
(4.357143 8.5 2)
(4.357143 7.857143 2)
(4.357143 7.857143 0)
(4.357143 7.785714 0)
(4.357143 7.785714 2)
(4.357143 0.2142857 2)
(4.357143 0.2142857 0)
(4.428571 9.785714 0)
(4.428571 9.785714 2)
(4.428571 8.571428 2)
(4.428571 8.571428 0)
(4.428571 8.5 0)
(4.428571 8.5 2)
(4.428571 7.857143 2)
(4.428571 7.857143 0)
(4.428571 7.785714 0)
(4.428571 7.785714 2)
(4.428571 0.2142857 2)
(4.428571 0.2142857 0)
(4.5 9.785714 0)
(4.5 9.785714 2)
(4.5 8.571428 2)
(4.5 8.571428 0)
(4.5 8.5 0)
(4.5 8.5 2)
(4.5 7.857143 2)
(4.5 7.857143 0)
(4.5 7.785714 0)
(4.5 7.785714 2)
(4.5 0.2142857 2)
(4.5 0.2142857 0)
(4.571429 9.785714 0)
(4.571429 9.785714 2)
(4.571429 8.571428 2)
(4.571429 8.571428 0)
(4.571429 8.5 0)
(4.571429 8.5 2)
(4.571429 7.857143 2)
(4.571429 7.857143 0)
(4.571429 7.785714 0)
(4.571429 7.785714 2)
(4.571429 0.2142857 2)
(4.571429 0.2142857 0)
(4.642857 9.785714 0)
(4.642857 9.785714 2)
(4.642857 8.571428 2)
(4.642857 8.571428 0)
(4.642857 8.5 0)
(4.642857 8.5 2)
(4.642857 7.857143 2)
(4.642857 7.857143 0)
(4.642857 7.785714 0)
(4.642857 7.785714 2)
(4.642857 0.2142857 2)
(4.642857 0.2142857 0)
(4.714286 9.785714 0)
(4.714286 9.785714 2)
(4.714286 8.571428 2)
(4.714286 8.571428 0)
(4.714286 8.5 0)
(4.714286 8.5 2)
(4.714286 7.857143 2)
(4.714286 7.857143 0)
(4.714286 7.785714 0)
(4.714286 7.785714 2)
(4.714286 0.2142857 2)
(4.714286 0.2142857 0)
(4.785714 9.785714 0)
(4.785714 9.785714 2)
(4.785714 8.571428 2)
(4.785714 8.571428 0)
(4.785714 8.5 0)
(4.785714 8.5 2)
(4.785714 7.857143 2)
(4.785714 7.857143 0)
(4.785714 7.785714 0)
(4.785714 7.785714 2)
(4.785714 2.071429 2)
(4.785714 2.071429 0)
(4.785714 2 2)
(4.785714 2 0)
(4.785714 1.928571 2)
(4.785714 1.928571 0)
(4.785714 1.857143 2)
(4.785714 1.857143 0)
(4.785714 1.785714 2)
(4.785714 1.785714 0)
(4.785714 1.714286 2)
(4.785714 1.714286 0)
(4.785714 1.642857 2)
(4.785714 1.642857 0)
(4.785714 1.571429 2)
(4.785714 1.571429 0)
(4.785714 1.5 2)
(4.785714 1.5 0)
(4.785714 1.428571 2)
(4.785714 1.428571 0)
(4.785714 1.357143 2)
(4.785714 1.357143 0)
(4.785714 1.285714 2)
(4.785714 1.285714 0)
(4.785714 1.214286 2)
(4.785714 1.214286 0)
(4.785714 1.142857 2)
(4.785714 1.142857 0)
(4.785714 1.071429 2)
(4.785714 1.071429 0)
(4.785714 1 2)
(4.785714 1 0)
(4.785714 0.9285714 2)
(4.785714 0.9285714 0)
(4.785714 0.8571429 2)
(4.785714 0.8571429 0)
(4.785714 0.7857143 2)
(4.785714 0.7857143 0)
(4.785714 0.7142857 2)
(4.785714 0.7142857 0)
(4.785714 0.6428571 2)
(4.785714 0.6428571 0)
(4.785714 0.5714286 2)
(4.785714 0.5714286 0)
(4.785714 0.5 2)
(4.785714 0.5 0)
(4.785714 0.4285714 2)
(4.785714 0.4285714 0)
(4.785714 0.3571429 2)
(4.785714 0.3571429 0)
(4.785714 0.2857143 2)
(4.785714 0.2857143 0)
(4.857143 9.785714 0)
(4.857143 9.785714 2)
(4.857143 8.571428 2)
(4.857143 8.571428 0)
(4.857143 8.5 0)
(4.857143 8.5 2)
(4.857143 7.857143 2)
(4.857143 7.857143 0)
(4.857143 7.785714 0)
(4.857143 7.785714 2)
(4.857143 2.071429 0)
(4.857143 2.071429 2)
(4.857143 2 0)
(4.857143 2 2)
(4.857143 1.928571 0)
(4.857143 1.928571 2)
(4.857143 1.857143 0)
(4.857143 1.857143 2)
(4.857143 1.785714 0)
(4.857143 1.785714 2)
(4.857143 1.714286 0)
(4.857143 1.714286 2)
(4.857143 1.642857 0)
(4.857143 1.642857 2)
(4.857143 1.571429 0)
(4.857143 1.571429 2)
(4.857143 1.5 0)
(4.857143 1.5 2)
(4.857143 1.428571 0)
(4.857143 1.428571 2)
(4.857143 1.357143 0)
(4.857143 1.357143 2)
(4.857143 1.285714 0)
(4.857143 1.285714 2)
(4.857143 1.214286 0)
(4.857143 1.214286 2)
(4.857143 1.142857 0)
(4.857143 1.142857 2)
(4.857143 1.071429 0)
(4.857143 1.071429 2)
(4.857143 1 0)
(4.857143 1 2)
(4.857143 0.9285714 0)
(4.857143 0.9285714 2)
(4.857143 0.8571429 0)
(4.857143 0.8571429 2)
(4.857143 0.7857143 0)
(4.857143 0.7857143 2)
(4.857143 0.7142857 0)
(4.857143 0.7142857 2)
(4.857143 0.6428571 0)
(4.857143 0.6428571 2)
(4.857143 0.5714286 0)
(4.857143 0.5714286 2)
(4.857143 0.5 0)
(4.857143 0.5 2)
(4.857143 0.4285714 0)
(4.857143 0.4285714 2)
(4.857143 0.3571429 0)
(4.857143 0.3571429 2)
(4.857143 0.2857143 0)
(4.857143 0.2857143 2)
(4.928571 9.785714 0)
(4.928571 9.785714 2)
(4.928571 8.571428 2)
(4.928571 8.571428 0)
(4.928571 8.5 0)
(4.928571 8.5 2)
(4.928571 7.857143 2)
(4.928571 7.857143 0)
(4.928571 7.785714 0)
(4.928571 7.785714 2)
(4.928571 0.2142857 2)
(4.928571 0.2142857 0)
(5 9.785714 0)
(5 9.785714 2)
(5 8.571428 2)
(5 8.571428 0)
(5 8.428572 2)
(5 8.428572 0)
(5 8.357142 2)
(5 8.357142 0)
(5 8.285714 2)
(5 8.285714 0)
(5 8.214286 2)
(5 8.214286 0)
(5 8.142858 2)
(5 8.142858 0)
(5 8.071428 2)
(5 8.071428 0)
(5 8 2)
(5 8 0)
(5 7.928571 2)
(5 7.928571 0)
(5 7.785714 0)
(5 7.785714 2)
(5 0.2142857 2)
(5 0.2142857 0)
(5.071429 9.785714 0)
(5.071429 9.785714 2)
(5.071429 0.2142857 2)
(5.071429 0.2142857 0)
(5.071429 8.5 0)
(5.071429 8.5 2)
(5.071429 8.428572 0)
(5.071429 8.428572 2)
(5.071429 8.357142 0)
(5.071429 8.357142 2)
(5.071429 8.285714 0)
(5.071429 8.285714 2)
(5.071429 8.214286 0)
(5.071429 8.214286 2)
(5.071429 8.142858 0)
(5.071429 8.142858 2)
(5.071429 8.071428 0)
(5.071429 8.071428 2)
(5.071429 8 0)
(5.071429 8 2)
(5.071429 7.928571 0)
(5.071429 7.928571 2)
(5.071429 7.857143 0)
(5.071429 7.857143 2)
(5.142857 9.785714 0)
(5.142857 9.785714 2)
(5.142857 0.2142857 2)
(5.142857 0.2142857 0)
(5.214286 9.785714 0)
(5.214286 9.785714 2)
(5.214286 0.2142857 2)
(5.214286 0.2142857 0)
(5.285714 9.785714 0)
(5.285714 9.785714 2)
(5.285714 0.2142857 2)
(5.285714 0.2142857 0)
(5.357143 9.785714 0)
(5.357143 9.785714 2)
(5.357143 0.2142857 2)
(5.357143 0.2142857 0)
(5.428571 9.785714 0)
(5.428571 9.785714 2)
(5.428571 0.2142857 2)
(5.428571 0.2142857 0)
(5.5 9.785714 0)
(5.5 9.785714 2)
(5.5 0.2142857 2)
(5.5 0.2142857 0)
(5.571429 9.785714 0)
(5.571429 9.785714 2)
(5.571429 0.2142857 2)
(5.571429 0.2142857 0)
(5.642857 9.785714 0)
(5.642857 9.785714 2)
(5.642857 0.2142857 2)
(5.642857 0.2142857 0)
(5.714286 9.785714 0)
(5.714286 9.785714 2)
(5.714286 0.2142857 2)
(5.714286 0.2142857 0)
(5.785714 9.785714 0)
(5.785714 9.785714 2)
(5.785714 0.2142857 2)
(5.785714 0.2142857 0)
(5.857143 9.785714 0)
(5.857143 9.785714 2)
(5.857143 0.2142857 2)
(5.857143 0.2142857 0)
(5.928571 9.785714 0)
(5.928571 9.785714 2)
(5.928571 0.2142857 2)
(5.928571 0.2142857 0)
(6 9.785714 0)
(6 9.785714 2)
(6 0.2142857 2)
(6 0.2142857 0)
(6.071429 9.785714 0)
(6.071429 9.785714 2)
(6.071429 0.2142857 2)
(6.071429 0.2142857 0)
(6.142857 9.785714 0)
(6.142857 9.785714 2)
(6.142857 0.2142857 2)
(6.142857 0.2142857 0)
(6.214286 9.785714 0)
(6.214286 9.785714 2)
(6.214286 0.2142857 2)
(6.214286 0.2142857 0)
(6.285714 9.785714 0)
(6.285714 9.785714 2)
(6.285714 0.2142857 2)
(6.285714 0.2142857 0)
(6.357143 9.785714 0)
(6.357143 9.785714 2)
(6.357143 0.2142857 2)
(6.357143 0.2142857 0)
(6.428571 9.785714 0)
(6.428571 9.785714 2)
(6.428571 0.2142857 2)
(6.428571 0.2142857 0)
(6.5 9.785714 0)
(6.5 9.785714 2)
(6.5 0.2142857 2)
(6.5 0.2142857 0)
(6.571429 9.785714 0)
(6.571429 9.785714 2)
(6.571429 2.428571 2)
(6.571429 2.428571 0)
(6.571429 2.357143 2)
(6.571429 2.357143 0)
(6.571429 2.285714 2)
(6.571429 2.285714 0)
(6.571429 2.214286 2)
(6.571429 2.214286 0)
(6.571429 2.142857 2)
(6.571429 2.142857 0)
(6.571429 2.071429 2)
(6.571429 2.071429 0)
(6.571429 2 2)
(6.571429 2 0)
(6.571429 1.928571 2)
(6.571429 1.928571 0)
(6.571429 1.857143 2)