/*--------------------------------*- C++ -*----------------------------------*\
  =========                 |
  \\      /  F ield         | OpenFOAM: The Open Source CFD Toolbox
   \\    /   O peration     | Website:  https://openfoam.org
    \\  /    A nd           | Version:  7
     \\/     M anipulation  |
\*---------------------------------------------------------------------------*/
FoamFile
{
    version     2.0;
    format      ascii;
    class       featureEdgeMesh;
    location    "constant/triSurface";
    object      rand_env_1_flow_vol.eMesh;
}
// * * * * * * * * * * * * * * * * * * * * * * * * * * * * * * * * * * * * * //


// points:

1096
(
(0.2142857 9.785714 2)
(0.2142857 9.785714 0)
(0.2142857 0.2142857 0)
(0.2142857 0.2142857 2)
(9.785714 9.785714 0)
(9.785714 9.785714 2)
(9.785714 0.2142857 2)
(9.785714 0.2142857 0)
(1.357143 5.714286 1.984314)
(1.357143 5.642857 1.984314)
(1.428571 5.714286 1.984314)
(1.428571 5.642857 1.984314)
(2.142857 9 1.992157)
(2.142857 8.928572 1.992157)
(2.142857 8.857142 1.984314)
(2.142857 8.785714 1.984314)
(2.214286 9 1.992157)
(2.214286 8.928572 1.992157)
(2.214286 8.857142 1.984314)
(2.214286 8.785714 1.984314)
(1.357143 5.714286 2)
(1.357143 5.642857 2)
(1.428571 5.714286 2)
(1.428571 5.642857 2)
(2.142857 9 2)
(2.142857 8.928572 2)
(2.142857 8.857142 2)
(2.142857 8.785714 2)
(2.214286 9 2)
(2.214286 8.928572 2)
(2.214286 8.857142 2)
(2.214286 8.785714 2)
(0.2142857 9.714286 0)
(0.2142857 9.714286 2)
(0.2142857 9.642858 0)
(0.2142857 9.642858 2)
(0.2142857 9.571428 0)
(0.2142857 9.571428 2)
(0.2142857 9.5 0)
(0.2142857 9.5 2)
(0.2142857 9.428572 0)
(0.2142857 9.428572 2)
(0.2142857 9.357142 0)
(0.2142857 9.357142 2)
(0.2142857 9.285714 0)
(0.2142857 9.285714 2)
(0.2142857 9.214286 0)
(0.2142857 9.214286 2)
(0.2142857 9.142858 0)
(0.2142857 9.142858 2)
(0.2142857 9.071428 0)
(0.2142857 9.071428 2)
(0.2142857 9 0)
(0.2142857 9 2)
(0.2142857 8.928572 0)
(0.2142857 8.928572 2)
(0.2142857 8.857142 0)
(0.2142857 8.857142 2)
(0.2142857 8.785714 0)
(0.2142857 8.785714 2)
(0.2142857 8.714286 0)
(0.2142857 8.714286 2)
(0.2142857 8.642858 0)
(0.2142857 8.642858 2)
(0.2142857 8.571428 0)
(0.2142857 8.571428 2)
(0.2142857 8.5 0)
(0.2142857 8.5 2)
(0.2142857 8.428572 0)
(0.2142857 8.428572 2)
(0.2142857 8.357142 0)
(0.2142857 8.357142 2)
(0.2142857 8.285714 0)
(0.2142857 8.285714 2)
(0.2142857 8.214286 0)
(0.2142857 8.214286 2)
(0.2142857 8.142858 0)
(0.2142857 8.142858 2)
(0.2142857 8.071428 0)
(0.2142857 8.071428 2)
(0.2142857 8 0)
(0.2142857 8 2)
(0.2142857 7.928571 0)
(0.2142857 7.928571 2)
(0.2142857 7.857143 0)
(0.2142857 7.857143 2)
(0.2142857 7.785714 0)
(0.2142857 7.785714 2)
(0.2142857 7.714286 0)
(0.2142857 7.714286 2)
(0.2142857 7.642857 0)
(0.2142857 7.642857 2)
(0.2142857 7.571429 0)
(0.2142857 7.571429 2)
(0.2142857 7.5 0)
(0.2142857 7.5 2)
(0.2142857 7.428571 0)
(0.2142857 7.428571 2)
(0.2142857 7.357143 0)
(0.2142857 7.357143 2)
(0.2142857 7.285714 0)
(0.2142857 7.285714 2)
(0.2142857 7.214286 0)
(0.2142857 7.214286 2)
(0.2142857 7.142857 0)
(0.2142857 7.142857 2)
(0.2142857 7.071429 0)
(0.2142857 7.071429 2)
(0.2142857 7 0)
(0.2142857 7 2)
(0.2142857 6.928571 0)
(0.2142857 6.928571 2)
(0.2142857 6.857143 0)
(0.2142857 6.857143 2)
(0.2142857 6.785714 0)
(0.2142857 6.785714 2)
(0.2142857 6.714286 0)
(0.2142857 6.714286 2)
(0.2142857 6.642857 0)
(0.2142857 6.642857 2)
(0.2142857 6.571429 0)
(0.2142857 6.571429 2)
(0.2142857 6.5 0)
(0.2142857 6.5 2)
(0.2142857 6.428571 0)
(0.2142857 6.428571 2)
(0.2142857 6.357143 0)
(0.2142857 6.357143 2)
(0.2142857 6.285714 0)
(0.2142857 6.285714 2)
(0.2142857 6.214286 0)
(0.2142857 6.214286 2)
(0.2142857 6.142857 0)
(0.2142857 6.142857 2)
(0.2142857 6.071429 0)
(0.2142857 6.071429 2)
(0.2142857 6 0)
(0.2142857 6 2)
(0.2142857 5.928571 0)
(0.2142857 5.928571 2)
(0.2142857 5.857143 0)
(0.2142857 5.857143 2)
(0.2142857 5.785714 0)
(0.2142857 5.785714 2)
(0.2142857 5.714286 0)
(0.2142857 5.714286 2)
(0.2142857 5.642857 0)
(0.2142857 5.642857 2)
(0.2142857 5.571429 0)
(0.2142857 5.571429 2)
(0.2142857 5.5 0)
(0.2142857 5.5 2)
(0.2142857 5.428571 0)
(0.2142857 5.428571 2)
(0.2142857 5.357143 0)
(0.2142857 5.357143 2)
(0.2142857 5.285714 0)
(0.2142857 5.285714 2)
(0.2142857 5.214286 0)
(0.2142857 5.214286 2)
(0.2142857 5.142857 0)
(0.2142857 5.142857 2)
(0.2142857 5.071429 0)
(0.2142857 5.071429 2)
(0.2142857 5 0)
(0.2142857 5 2)
(0.2142857 4.928571 0)
(0.2142857 4.928571 2)
(0.2142857 4.857143 0)
(0.2142857 4.857143 2)
(0.2142857 4.785714 0)
(0.2142857 4.785714 2)
(0.2142857 4.714286 0)
(0.2142857 4.714286 2)
(0.2142857 4.642857 0)
(0.2142857 4.642857 2)
(0.2142857 4.571429 0)
(0.2142857 4.571429 2)
(0.2142857 4.5 0)
(0.2142857 4.5 2)
(0.2142857 4.428571 0)
(0.2142857 4.428571 2)
(0.2142857 4.357143 0)
(0.2142857 4.357143 2)
(0.2142857 4.285714 0)
(0.2142857 4.285714 2)
(0.2142857 4.214286 0)
(0.2142857 4.214286 2)
(0.2142857 4.142857 0)
(0.2142857 4.142857 2)
(0.2142857 4.071429 0)
(0.2142857 4.071429 2)
(0.2142857 4 0)
(0.2142857 4 2)
(0.2142857 3.928571 0)
(0.2142857 3.928571 2)
(0.2142857 3.857143 0)
(0.2142857 3.857143 2)
(0.2142857 3.785714 0)
(0.2142857 3.785714 2)
(0.2142857 3.714286 0)
(0.2142857 3.714286 2)
(0.2142857 3.642857 0)
(0.2142857 3.642857 2)
(0.2142857 3.571429 0)
(0.2142857 3.571429 2)
(0.2142857 3.5 0)
(0.2142857 3.5 2)
(0.2142857 3.428571 0)
(0.2142857 3.428571 2)
(0.2142857 3.357143 0)
(0.2142857 3.357143 2)
(0.2142857 3.285714 0)
(0.2142857 3.285714 2)
(0.2142857 3.214286 0)
(0.2142857 3.214286 2)
(0.2142857 3.142857 0)
(0.2142857 3.142857 2)
(0.2142857 3.071429 0)
(0.2142857 3.071429 2)
(0.2142857 3 0)
(0.2142857 3 2)
(0.2142857 2.928571 0)
(0.2142857 2.928571 2)
(0.2142857 2.857143 0)
(0.2142857 2.857143 2)
(0.2142857 2.785714 0)
(0.2142857 2.785714 2)
(0.2142857 2.714286 0)
(0.2142857 2.714286 2)
(0.2142857 2.642857 0)
(0.2142857 2.642857 2)
(0.2142857 2.571429 0)
(0.2142857 2.571429 2)
(0.2142857 2.5 0)
(0.2142857 2.5 2)
(0.2142857 2.428571 0)
(0.2142857 2.428571 2)
(0.2142857 2.357143 0)
(0.2142857 2.357143 2)
(0.2142857 2.285714 0)
(0.2142857 2.285714 2)
(0.2142857 2.214286 0)
(0.2142857 2.214286 2)
(0.2142857 2.142857 0)
(0.2142857 2.142857 2)
(0.2142857 2.071429 0)
(0.2142857 2.071429 2)
(0.2142857 2 0)
(0.2142857 2 2)
(0.2142857 1.928571 0)
(0.2142857 1.928571 2)
(0.2142857 1.857143 0)
(0.2142857 1.857143 2)
(0.2142857 1.785714 0)
(0.2142857 1.785714 2)
(0.2142857 1.714286 0)
(0.2142857 1.714286 2)
(0.2142857 1.642857 0)
(0.2142857 1.642857 2)
(0.2142857 1.571429 0)
(0.2142857 1.571429 2)
(0.2142857 1.5 0)
(0.2142857 1.5 2)
(0.2142857 1.428571 0)
(0.2142857 1.428571 2)
(0.2142857 1.357143 0)
(0.2142857 1.357143 2)
(0.2142857 1.285714 0)
(0.2142857 1.285714 2)
(0.2142857 1.214286 0)
(0.2142857 1.214286 2)
(0.2142857 1.142857 0)
(0.2142857 1.142857 2)
(0.2142857 1.071429 0)
(0.2142857 1.071429 2)
(0.2142857 1 0)
(0.2142857 1 2)
(0.2142857 0.9285714 0)
(0.2142857 0.9285714 2)
(0.2142857 0.8571429 0)
(0.2142857 0.8571429 2)
(0.2142857 0.7857143 0)
(0.2142857 0.7857143 2)
(0.2142857 0.7142857 0)
(0.2142857 0.7142857 2)
(0.2142857 0.6428571 0)
(0.2142857 0.6428571 2)
(0.2142857 0.5714286 0)
(0.2142857 0.5714286 2)
(0.2142857 0.5 0)
(0.2142857 0.5 2)
(0.2142857 0.4285714 0)
(0.2142857 0.4285714 2)
(0.2142857 0.3571429 0)
(0.2142857 0.3571429 2)
(0.2142857 0.2857143 0)
(0.2142857 0.2857143 2)
(0.2857143 9.785714 0)
(0.2857143 9.785714 2)
(0.2857143 0.2142857 2)
(0.2857143 0.2142857 0)
(0.3571429 9.785714 0)
(0.3571429 9.785714 2)
(0.3571429 0.2142857 2)
(0.3571429 0.2142857 0)
(0.4285714 9.785714 0)
(0.4285714 9.785714 2)
(0.4285714 0.2142857 2)
(0.4285714 0.2142857 0)
(0.5 9.785714 0)
(0.5 9.785714 2)
(0.5 0.2142857 2)
(0.5 0.2142857 0)
(0.5714286 9.785714 0)
(0.5714286 9.785714 2)
(0.5714286 0.2142857 2)
(0.5714286 0.2142857 0)
(0.6428571 9.785714 0)
(0.6428571 9.785714 2)
(0.6428571 0.2142857 2)
(0.6428571 0.2142857 0)
(0.7142857 9.785714 0)
(0.7142857 9.785714 2)
(0.7142857 0.2142857 2)
(0.7142857 0.2142857 0)
(0.7857143 9.785714 0)
(0.7857143 9.785714 2)
(0.7857143 0.2142857 2)
(0.7857143 0.2142857 0)
(0.8571429 9.785714 0)
(0.8571429 9.785714 2)
(0.8571429 0.2142857 2)
(0.8571429 0.2142857 0)
(0.9285714 9.785714 0)
(0.9285714 9.785714 2)
(0.9285714 0.2142857 2)
(0.9285714 0.2142857 0)
(1 9.785714 0)
(1 9.785714 2)
(1 0.2142857 2)
(1 0.2142857 0)
(1.071429 9.785714 0)
(1.071429 9.785714 2)
(1.071429 0.2142857 2)
(1.071429 0.2142857 0)
(1.142857 9.785714 0)
(1.142857 9.785714 2)
(1.142857 0.2142857 2)
(1.142857 0.2142857 0)
(1.214286 9.785714 0)
(1.214286 9.785714 2)
(1.214286 0.2142857 2)
(1.214286 0.2142857 0)
(1.285714 9.785714 0)
(1.285714 9.785714 2)
(1.285714 0.2142857 2)
(1.285714 0.2142857 0)
(1.357143 9.785714 0)
(1.357143 9.785714 2)
(1.357143 0.2142857 2)
(1.357143 0.2142857 0)
(1.428571 9.785714 0)
(1.428571 9.785714 2)
(1.428571 0.2142857 2)
(1.428571 0.2142857 0)
(1.5 9.785714 0)
(1.5 9.785714 2)
(1.5 0.2142857 2)
(1.5 0.2142857 0)
(1.571429 9.785714 0)
(1.571429 9.785714 2)
(1.571429 0.2142857 2)
(1.571429 0.2142857 0)
(1.642857 9.785714 0)
(1.642857 9.785714 2)
(1.642857 0.2142857 2)
(1.642857 0.2142857 0)
(1.714286 9.785714 0)
(1.714286 9.785714 2)
(1.714286 0.2142857 2)
(1.714286 0.2142857 0)
(1.785714 9.785714 0)
(1.785714 9.785714 2)
(1.785714 0.2142857 2)
(1.785714 0.2142857 0)
(1.857143 9.785714 0)
(1.857143 9.785714 2)
(1.857143 0.2142857 2)
(1.857143 0.2142857 0)
(1.928571 9.785714 0)
(1.928571 9.785714 2)
(1.928571 0.2142857 2)
(1.928571 0.2142857 0)
(2 9.785714 0)
(2 9.785714 2)
(2 0.2142857 2)
(2 0.2142857 0)
(2.071429 9.785714 0)
(2.071429 9.785714 2)
(2.071429 0.2142857 2)
(2.071429 0.2142857 0)
(2.142857 9.785714 0)
(2.142857 9.785714 2)
(2.142857 0.2142857 2)
(2.142857 0.2142857 0)
(2.214286 9.785714 0)
(2.214286 9.785714 2)
(2.214286 0.2142857 2)
(2.214286 0.2142857 0)
(2.285714 9.785714 0)
(2.285714 9.785714 2)
(2.285714 0.2142857 2)
(2.285714 0.2142857 0)
(2.357143 9.785714 0)
(2.357143 9.785714 2)
(2.357143 0.2142857 2)
(2.357143 0.2142857 0)
(2.428571 9.785714 0)
(2.428571 9.785714 2)
(2.428571 0.2142857 2)
(2.428571 0.2142857 0)
(2.5 9.785714 0)
(2.5 9.785714 2)
(2.5 0.2142857 2)
(2.5 0.2142857 0)
(2.571429 9.785714 0)
(2.571429 9.785714 2)
(2.571429 0.2142857 2)
(2.571429 0.2142857 0)
(2.642857 9.785714 0)
(2.642857 9.785714 2)
(2.642857 0.2142857 2)
(2.642857 0.2142857 0)
(2.714286 9.785714 0)
(2.714286 9.785714 2)
(2.714286 0.2142857 2)
(2.714286 0.2142857 0)
(2.785714 9.785714 0)
(2.785714 9.785714 2)
(2.785714 0.2142857 2)
(2.785714 0.2142857 0)
(2.857143 9.785714 0)
(2.857143 9.785714 2)
(2.857143 0.2142857 2)
(2.857143 0.2142857 0)
(2.928571 9.785714 0)
(2.928571 9.785714 2)
(2.928571 0.2142857 2)
(2.928571 0.2142857 0)
(3 9.785714 0)
(3 9.785714 2)
(3 0.2142857 2)
(3 0.2142857 0)
(3.071429 9.785714 0)
(3.071429 9.785714 2)
(3.071429 0.2142857 2)
(3.071429 0.2142857 0)
(3.142857 9.785714 0)
(3.142857 9.785714 2)
(3.142857 0.2142857 2)
(3.142857 0.2142857 0)
(3.214286 9.785714 0)
(3.214286 9.785714 2)
(3.214286 0.2142857 2)
(3.214286 0.2142857 0)
(3.285714 9.785714 0)
(3.285714 9.785714 2)
(3.285714 0.2142857 2)
(3.285714 0.2142857 0)
(3.357143 9.785714 0)
(3.357143 9.785714 2)
(3.357143 0.2142857 2)
(3.357143 0.2142857 0)
(3.428571 9.785714 0)
(3.428571 9.785714 2)
(3.428571 0.2142857 2)
(3.428571 0.2142857 0)
(3.5 9.785714 0)
(3.5 9.785714 2)
(3.5 0.2142857 2)
(3.5 0.2142857 0)
(3.571429 9.785714 0)
(3.571429 9.785714 2)
(3.571429 0.2142857 2)
(3.571429 0.2142857 0)
(3.642857 9.785714 0)
(3.642857 9.785714 2)
(3.642857 0.2142857 2)
(3.642857 0.2142857 0)
(3.714286 9.785714 0)
(3.714286 9.785714 2)
(3.714286 0.2142857 2)
(3.714286 0.2142857 0)
(3.785714 9.785714 0)
(3.785714 9.785714 2)
(3.785714 0.2142857 2)
(3.785714 0.2142857 0)
(3.857143 9.785714 0)
(3.857143 9.785714 2)
(3.857143 0.2142857 2)
(3.857143 0.2142857 0)
(3.928571 9.785714 0)
(3.928571 9.785714 2)
(3.928571 0.2142857 2)
(3.928571 0.2142857 0)
(4 9.785714 0)
(4 9.785714 2)
(4 0.2142857 2)
(4 0.2142857 0)
(4.071429 9.785714 0)
(4.071429 9.785714 2)
(4.071429 0.2142857 2)
(4.071429 0.2142857 0)
(4.142857 9.785714 0)
(4.142857 9.785714 2)
(4.142857 0.2142857 2)
(4.142857 0.2142857 0)
(4.214286 9.785714 0)
(4.214286 9.785714 2)
(4.214286 0.2142857 2)
(4.214286 0.2142857 0)
(4.285714 9.785714 0)
(4.285714 9.785714 2)
(4.285714 0.2142857 2)
(4.285714 0.2142857 0)
(4.357143 9.785714 0)
(4.357143 9.785714 2)
(4.357143 0.2142857 2)
(4.357143 0.2142857 0)
(4.428571 9.785714 0)
(4.428571 9.785714 2)
(4.428571 0.2142857 2)
(4.428571 0.2142857 0)
(4.5 9.785714 0)
(4.5 9.785714 2)
(4.5 0.2142857 2)
(4.5 0.2142857 0)
(4.571429 9.785714 0)
(4.571429 9.785714 2)
(4.571429 0.2142857 2)
(4.571429 0.2142857 0)
(4.642857 9.785714 0)
(4.642857 9.785714 2)
(4.642857 0.2142857 2)
(4.642857 0.2142857 0)
(4.714286 9.785714 0)
(4.714286 9.785714 2)
(4.714286 0.2142857 2)
(4.714286 0.2142857 0)
(4.785714 9.785714 0)
(4.785714 9.785714 2)
(4.785714 0.2142857 2)
(4.785714 0.2142857 0)
(4.857143 9.785714 0)
(4.857143 9.785714 2)
(4.857143 0.2142857 2)
(4.857143 0.2142857 0)
(4.928571 9.785714 0)
(4.928571 9.785714 2)
(4.928571 0.2142857 2)
(4.928571 0.2142857 0)
(5 9.785714 0)
(5 9.785714 2)
(5 0.2142857 2)
(5 0.2142857 0)
(5.071429 9.785714 0)
(5.071429 9.785714 2)
(5.071429 0.2142857 2)
(5.071429 0.2142857 0)
(5.142857 9.785714 0)
(5.142857 9.785714 2)
(5.142857 0.2142857 2)
(5.142857 0.2142857 0)
(5.214286 9.785714 0)
(5.214286 9.785714 2)
(5.214286 0.2142857 2)
(5.214286 0.2142857 0)
(5.285714 9.785714 0)
(5.285714 9.785714 2)
(5.285714 0.2142857 2)
(5.285714 0.2142857 0)
(5.357143 9.785714 0)
(5.357143 9.785714 2)
(5.357143 0.2142857 2)
(5.357143 0.2142857 0)
(5.428571 9.785714 0)
(5.428571 9.785714 2)
(5.428571 0.2142857 2)
(5.428571 0.2142857 0)
(5.5 9.785714 0)
(5.5 9.785714 2)
(5.5 0.2142857 2)
(5.5 0.2142857 0)
(5.571429 9.785714 0)
(5.571429 9.785714 2)
(5.571429 0.2142857 2)
(5.571429 0.2142857 0)
(5.642857 9.785714 0)
(5.642857 9.785714 2)
(5.642857 0.2142857 2)
(5.642857 0.2142857 0)
(5.714286 9.785714 0)
(5.714286 9.785714 2)
(5.714286 0.2142857 2)
(5.714286 0.2142857 0)
(5.785714 9.785714 0)
(5.785714 9.785714 2)
(5.785714 0.2142857 2)
(5.785714 0.2142857 0)
(5.857143 9.785714 0)
(5.857143 9.785714 2)
(5.857143 0.2142857 2)
(5.857143 0.2142857 0)
(5.928571 9.785714 0)
(5.928571 9.785714 2)
(5.928571 0.2142857 2)
(5.928571 0.2142857 0)
(6 9.785714 0)
(6 9.785714 2)
(6 0.2142857 2)
(6 0.2142857 0)
(6.071429 9.785714 0)
(6.071429 9.785714 2)
(6.071429 0.2142857 2)
(6.071429 0.2142857 0)
(6.142857 9.785714 0)
(6.142857 9.785714 2)
(6.142857 0.2142857 2)
(6.142857 0.2142857 0)
(6.214286 9.785714 0)
(6.214286 9.785714 2)
(6.214286 0.2142857 2)
(6.214286 0.2142857 0)
(6.285714 9.785714 0)
(6.285714 9.785714 2)
(6.285714 0.2142857 2)
(6.285714 0.2142857 0)
(6.357143 9.785714 0)
(6.357143 9.785714 2)
(6.357143 0.2142857 2)
(6.357143 0.2142857 0)
(6.428571 9.785714 0)
(6.428571 9.785714 2)
(6.428571 0.2142857 2)
(6.428571 0.2142857 0)
(6.5 9.785714 0)
(6.5 9.785714 2)
(6.5 0.2142857 2)
(6.5 0.2142857 0)
(6.571429 9.785714 0)
(6.571429 9.785714 2)
(6.571429 0.2142857 2)
(6.571429 0.2142857 0)
(6.642857 9.785714 0)
(6.642857 9.785714 2)
(6.642857 0.2142857 2)
(6.642857 0.2142857 0)
(6.714286 9.785714 0)
(6.714286 9.785714 2)
(6.714286 0.2142857 2)
(6.714286 0.2142857 0)
(6.785714 9.785714 0)
(6.785714 9.785714 2)
(6.785714 0.2142857 2)
(6.785714 0.2142857 0)
(6.857143 9.785714 0)
(6.857143 9.785714 2)
(6.857143 0.2142857 2)
(6.857143 0.2142857 0)
(6.928571 9.785714 0)
(6.928571 9.785714 2)
(6.928571 0.2142857 2)
(6.928571 0.2142857 0)
(7 9.785714 0)
(7 9.785714 2)
(7 0.2142857 2)
(7 0.2142857 0)
(7.071429 9.785714 0)
(7.071429 9.785714 2)
(7.071429 0.2142857 2)
(7.071429 0.2142857 0)
(7.142857 9.785714 0)
(7.142857 9.785714 2)
(7.142857 0.2142857 2)
(7.142857 0.2142857 0)
(7.214286 9.785714 0)
(7.214286 9.785714 2)
(7.214286 0.2142857 2)
(7.214286 0.2142857 0)
(7.285714 9.785714 0)
(7.285714 9.785714 2)
(7.285714 0.2142857 2)
(7.285714 0.2142857 0)
(7.357143 9.785714 0)
(7.357143 9.785714 2)
(7.357143 0.2142857 2)
(7.357143 0.2142857 0)
(7.428571 9.785714 0)
(7.428571 9.785714 2)
(7.428571 0.2142857 2)
(7.428571 0.2142857 0)
(7.5 9.785714 0)
(7.5 9.785714 2)
(7.5 0.2142857 2)
(7.5 0.2142857 0)
(7.571429 9.785714 0)
(7.571429 9.785714 2)
(7.571429 0.2142857 2)
(7.571429 0.2142857 0)
(7.642857 9.785714 0)
(7.642857 9.785714 2)
(7.642857 0.2142857 2)
(7.642857 0.2142857 0)
(7.714286 9.785714 0)
(7.714286 9.785714 2)
(7.714286 0.2142857 2)
(7.714286 0.2142857 0)
(7.785714 9.785714 0)
(7.785714 9.785714 2)
(7.785714 0.2142857 2)
(7.785714 0.2142857 0)
(7.857143 9.785714 0)
(7.857143 9.785714 2)
(7.857143 0.2142857 2)
(7.857143 0.2142857 0)
(7.928571 9.785714 0)
(7.928571 9.785714 2)
(7.928571 0.2142857 2)
(7.928571 0.2142857 0)
(8 9.785714 0)
(8 9.785714 2)
(8 0.2142857 2)
(8 0.2142857 0)
(8.071428 9.785714 0)
(8.071428 9.785714 2)
(8.071428 0.2142857 2)
(8.071428 0.2142857 0)
(8.142858 9.785714 0)
(8.142858 9.785714 2)
(8.142858 0.2142857 2)
(8.142858 0.2142857 0)
(8.214286 9.785714 0)
(8.214286 9.785714 2)
(8.214286 0.2142857 2)
(8.214286 0.2142857 0)
(8.285714 9.785714 0)
(8.285714 9.785714 2)
(8.285714 0.2142857 2)
(8.285714 0.2142857 0)
(8.357142 9.785714 0)
(8.357142 9.785714 2)
(8.357142 0.2142857 2)
(8.357142 0.2142857 0)
(8.428572 9.785714 0)
(8.428572 9.785714 2)
(8.428572 0.2142857 2)
(8.428572 0.2142857 0)
(8.5 9.785714 0)
(8.5 9.785714 2)
(8.5 0.2142857 2)
(8.5 0.2142857 0)
(8.571428 9.785714 0)
(8.571428 9.785714 2)
(8.571428 0.2142857 2)
(8.571428 0.2142857 0)
(8.642858 9.785714 0)
(8.642858 9.785714 2)
(8.642858 0.2142857 2)
(8.642858 0.2142857 0)
(8.714286 9.785714 0)
(8.714286 9.785714 2)
(8.714286 0.2142857 2)
(8.714286 0.2142857 0)
(8.785714 9.785714 0)
(8.785714 9.785714 2)
(8.785714 0.2142857 2)
(8.785714 0.2142857 0)
(8.857142 9.785714 0)
(8.857142 9.785714 2)
(8.857142 0.2142857 2)
(8.857142 0.2142857 0)
(8.928572 9.785714 0)
(8.928572 9.785714 2)
(8.928572 0.2142857 2)
(8.928572 0.2142857 0)
(9 9.785714 0)
(9 9.785714 2)
(9 0.2142857 2)
(9 0.2142857 0)
(9.071428 9.785714 0)
(9.071428 9.785714 2)
(9.071428 0.2142857 2)
(9.071428 0.2142857 0)
(9.142858 9.785714 0)
(9.142858 9.785714 2)
(9.142858 0.2142857 2)
(9.142858 0.2142857 0)
(9.214286 9.785714 0)
(9.214286 9.785714 2)
(9.214286 0.2142857 2)
(9.214286 0.2142857 0)
(9.285714 9.785714 0)
(9.285714 9.785714 2)
(9.285714 0.2142857 2)
(9.285714 0.2142857 0)
(9.357142 9.785714 0)
(9.357142 9.785714 2)
(9.357142 0.2142857 2)
(9.357142 0.2142857 0)
(9.428572 9.785714 0)
(9.428572 9.785714 2)
(9.428572 0.2142857 2)
(9.428572 0.2142857 0)
(9.5 9.785714 0)
(9.5 9.785714 2)
(9.5 0.2142857 2)
(9.5 0.2142857 0)
(9.571428 9.785714 0)
(9.571428 9.785714 2)
(9.571428 0.2142857 2)
(9.571428 0.2142857 0)
(9.642858 9.785714 0)
(9.642858 9.785714 2)
(9.642858 0.2142857 2)
(9.642858 0.2142857 0)
(9.714286 9.785714 0)
(9.714286 9.785714 2)
(9.714286 0.2142857 2)
(9.714286 0.2142857 0)
(9.785714 9.714286 2)
(9.785714 9.714286 0)
(9.785714 9.642858 2)
(9.785714 9.642858 0)
(9.785714 9.571428 2)
(9.785714 9.571428 0)
(9.785714 9.5 2)
(9.785714 9.5 0)
(9.785714 9.428572 2)
(9.785714 9.428572 0)
(9.785714 9.357142 2)
(9.785714 9.357142 0)
(9.785714 9.285714 2)
(9.785714 9.285714 0)
(9.785714 9.214286 2)
(9.785714 9.214286 0)
(9.785714 9.142858 2)
(9.785714 9.142858 0)
(9.785714 9.071428 2)
(9.785714 9.071428 0)
(9.785714 9 2)
(9.785714 9 0)
(9.785714 8.928572 2)
(9.785714 8.928572 0)
(9.785714 8.857142 2)
(9.785714 8.857142 0)
(9.785714 8.785714 2)
(9.785714 8.785714 0)
(9.785714 8.714286 2)
(9.785714 8.714286 0)
(9.785714 8.642858 2)
(9.785714 8.642858 0)
(9.785714 8.571428 2)
(9.785714 8.571428 0)
(9.785714 8.5 2)
(9.785714 8.5 0)
(9.785714 8.428572 2)
(9.785714 8.428572 0)
(9.785714 8.357142 2)
(9.785714 8.357142 0)
(9.785714 8.285714 2)
(9.785714 8.285714 0)
(9.785714 8.214286 2)
(9.785714 8.214286 0)
(9.785714 8.142858 2)
(9.785714 8.142858 0)
(9.785714 8.071428 2)
(9.785714 8.071428 0)
(9.785714 8 2)
(9.785714 8 0)
(9.785714 7.928571 2)
(9.785714 7.928571 0)
(9.785714 7.857143 2)
(9.785714 7.857143 0)
(9.785714 7.785714 2)
(9.785714 7.785714 0)
(9.785714 7.714286 2)
(9.785714 7.714286 0)
(9.785714 7.642857 2)
(9.785714 7.642857 0)
(9.785714 7.571429 2)
(9.785714 7.571429 0)
(9.785714 7.5 2)
(9.785714 7.5 0)
(9.785714 7.428571 2)
(9.785714 7.428571 0)
(9.785714 7.357143 2)
(9.785714 7.357143 0)
(9.785714 7.285714 2)
(9.785714 7.285714 0)
(9.785714 7.214286 2)
(9.785714 7.214286 0)
(9.785714 7.142857 2)
(9.785714 7.142857 0)
(9.785714 7.071429 2)
(9.785714 7.071429 0)
(9.785714 7 2)
(9.785714 7 0)
(9.785714 6.928571 2)
(9.785714 6.928571 0)
(9.785714 6.857143 2)
(9.785714 6.857143 0)
(9.785714 6.785714 2)
(9.785714 6.785714 0)
(9.785714 6.714286 2)
(9.785714 6.714286 0)
(9.785714 6.642857 2)
(9.785714 6.642857 0)
(9.785714 6.571429 2)
(9.785714 6.571429 0)
(9.785714 6.5 2)
(9.785714 6.5 0)
(9.785714 6.428571 2)
(9.785714 6.428571 0)
(9.785714 6.357143 2)
(9.785714 6.357143 0)
(9.785714 6.285714 2)
(9.785714 6.285714 0)
(9.785714 6.214286 2)
(9.785714 6.214286 0)
(9.785714 6.142857 2)
(9.785714 6.142857 0)
(9.785714 6.071429 2)
(9.785714 6.071429 0)
(9.785714 6 2)
(9.785714 6 0)
(9.785714 5.928571 2)
(9.785714 5.928571 0)
(9.785714 5.857143 2)
(9.785714 5.857143 0)
(9.785714 5.785714 2)
(9.785714 5.785714 0)
(9.785714 5.714286 2)
(9.785714 5.714286 0)
(9.785714 5.642857 2)
(9.785714 5.642857 0)
(9.785714 5.571429 2)
(9.785714 5.571429 0)
(9.785714 5.5 2)
(9.785714 5.5 0)
(9.785714 5.428571 2)
(9.785714 5.428571 0)
(9.785714 5.357143 2)
(9.785714 5.357143 0)
(9.785714 5.285714 2)
(9.785714 5.285714 0)
(9.785714 5.214286 2)
(9.785714 5.214286 0)
(9.785714 5.142857 2)
(9.785714 5.142857 0)
(9.785714 5.071429 2)
(9.785714 5.071429 0)
(9.785714 5 2)
(9.785714 5 0)
(9.785714 4.928571 2)
(9.785714 4.928571 0)
(9.785714 4.857143 2)
(9.785714 4.857143 0)
(9.785714 4.785714 2)
(9.785714 4.785714 0)
(9.785714 4.714286 2)
(9.785714 4.714286 0)
(9.785714 4.642857 2)
(9.785714 4.642857 0)
(9.785714 4.571429 2)
(9.785714 4.571429 0)
(9.785714 4.5 2)
(9.785714 4.5 0)
(9.785714 4.428571 2)
(9.785714 4.428571 0)
(9.785714 4.357143 2)
(9.785714 4.357143 0)
(9.785714 4.285714 2)
(9.785714 4.285714 0)
(9.785714 4.214286 2)
(9.785714 4.214286 0)
(9.785714 4.142857 2)
(9.785714 4.142857 0)
(9.785714 4.071429 2)
(9.785714 4.071429 0)
(9.785714 4 2)
(9.785714 4 0)
(9.785714 3.928571 2)
(9.785714 3.928571 0)
(9.785714 3.857143 2)
(9.785714 3.857143 0)
(9.785714 3.785714 2)
(9.785714 3.785714 0)
(9.785714 3.714286 2)
(9.785714 3.714286 0)
(9.785714 3.642857 2)
(9.785714 3.642857 0)
(9.785714 3.571429 2)
(9.785714 3.571429 0)
(9.785714 3.5 2)
(9.785714 3.5 0)
(9.785714 3.428571 2)
(9.785714 3.428571 0)
(9.785714 3.357143 2)
(9.785714 3.357143 0)
(9.785714 3.285714 2)
(9.785714 3.285714 0)
(9.785714 3.214286 2)
(9.785714 3.214286 0)
(9.785714 3.142857 2)
(9.785714 3.142857 0)
(9.785714 3.071429 2)
(9.785714 3.071429 0)
(9.785714 3 2)
(9.785714 3 0)
(9.785714 2.928571 2)
(9.785714 2.928571 0)
(9.785714 2.857143 2)
(9.785714 2.857143 0)
(9.785714 2.785714 2)
(9.785714 2.785714 0)
(9.785714 2.714286 2)
(9.785714 2.714286 0)
(9.785714 2.642857 2)
(9.785714 2.642857 0)
(9.785714 2.571429 2)
(9.785714 2.571429 0)
(9.785714 2.5 2)
(9.785714 2.5 0)
(9.785714 2.428571 2)
(9.785714 2.428571 0)
(9.785714 2.357143 2)
(9.785714 2.357143 0)
(9.785714 2.285714 2)
(9.785714 2.285714 0)
(9.785714 2.214286 2)
(9.785714 2.214286 0)
(9.785714 2.142857 2)
(9.785714 2.142857 0)
(9.785714 2.071429 2)
(9.785714 2.071429 0)
(9.785714 2 2)
(9.785714 2 0)
(9.785714 1.928571 2)
(9.785714 1.928571 0)
(9.785714 1.857143 2)
(9.785714 1.857143 0)
(9.785714 1.785714 2)
(9.785714 1.785714 0)
(9.785714 1.714286 2)
(9.785714 1.714286 0)
(9.785714 1.642857 2)
(9.785714 1.642857 0)
(9.785714 1.571429 2)
(9.785714 1.571429 0)
(9.785714 1.5 2)
(9.785714 1.5 0)
(9.785714 1.428571 2)
(9.785714 1.428571 0)
(9.785714 1.357143 2)
(9.785714 1.357143 0)
(9.785714 1.285714 2)
(9.785714 1.285714 0)
(9.785714 1.214286 2)
(9.785714 1.214286 0)
(9.785714 1.142857 2)
(9.785714 1.142857 0)
(9.785714 1.071429 2)
(9.785714 1.071429 0)
(9.785714 1 2)
(9.785714 1 0)
(9.785714 0.9285714 2)
(9.785714 0.9285714 0)
(9.785714 0.8571429 2)
(9.785714 0.8571429 0)
(9.785714 0.7857143 2)
(9.785714 0.7857143 0)
(9.785714 0.7142857 2)
(9.785714 0.7142857 0)
(9.785714 0.6428571 2)
(9.785714 0.6428571 0)
(9.785714 0.5714286 2)
(9.785714 0.5714286 0)
(9.785714 0.5 2)
(9.785714 0.5 0)
(9.785714 0.4285714 2)
(9.785714 0.4285714 0)
(9.785714 0.3571429 2)
(9.785714 0.3571429 0)
(9.785714 0.2857143 2)
(9.785714 0.2857143 0)
)


// edges:

1112
(
(0 1)
(1 32)
(33 0)
(32 34)
(35 33)
(34 36)
(37 35)
(36 38)
(39 37)
(38 40)
(41 39)
(40 42)
(43 41)
(42 44)
(45 43)
(44 46)
(47 45)
(46 48)
(49 47)
(48 50)
(51 49)
(50 52)
(53 51)
(52 54)
(55 53)
(54 56)
(57 55)
(56 58)
(59 57)
(58 60)
(61 59)
(60 62)
(63 61)
(62 64)
(65 63)
(64 66)
(67 65)
(66 68)
(69 67)
(68 70)
(71 69)
(70 72)
(73 71)
(72 74)
(75 73)
(74 76)
(77 75)
(76 78)
(79 77)
(78 80)
(81 79)
(80 82)
(83 81)
(82 84)
(85 83)
(84 86)
(87 85)
(86 88)
(89 87)
(88 90)
(91 89)
(90 92)
(93 91)
(92 94)
(95 93)
(94 96)
(97 95)
(96 98)
(99 97)
(98 100)
(101 99)
(100 102)
(103 101)
(102 104)
(105 103)
(104 106)
(107 105)
(106 108)
(109 107)
(108 110)
(111 109)
(110 112)
(113 111)
(112 114)
(115 113)
(114 116)
(117 115)
(116 118)
(119 117)
(118 120)
(121 119)
(120 122)
(123 121)
(122 124)
(125 123)
(124 126)
(127 125)
(126 128)
(129 127)
(128 130)
(131 129)
(130 132)
(133 131)
(132 134)
(135 133)
(134 136)
(137 135)
(136 138)
(139 137)
(138 140)
(141 139)
(140 142)
(143 141)
(142 144)
(145 143)
(144 146)
(147 145)
(146 148)
(149 147)
(148 150)
(151 149)
(150 152)
(153 151)
(152 154)
(155 153)
(154 156)
(157 155)
(156 158)
(159 157)
(158 160)
(161 159)
(160 162)
(163 161)
(162 164)
(165 163)
(164 166)
(167 165)
(166 168)
(169 167)
(168 170)
(171 169)
(170 172)
(173 171)
(172 174)
(175 173)
(174 176)
(177 175)
(176 178)
(179 177)
(178 180)
(181 179)
(180 182)
(183 181)
(182 184)
(185 183)
(184 186)
(187 185)
(186 188)
(189 187)
(188 190)
(191 189)
(190 192)
(193 191)
(192 194)
(195 193)
(194 196)
(197 195)
(196 198)
(199 197)
(198 200)
(201 199)
(200 202)
(203 201)
(202 204)
(205 203)
(204 206)
(207 205)
(206 208)
(209 207)
(208 210)
(211 209)
(210 212)
(213 211)
(212 214)
(215 213)
(214 216)
(217 215)
(216 218)
(219 217)
(218 220)
(221 219)
(220 222)
(223 221)
(222 224)
(225 223)
(224 226)
(227 225)
(226 228)
(229 227)
(228 230)
(231 229)
(230 232)
(233 231)
(232 234)
(235 233)
(234 236)
(237 235)
(236 238)
(239 237)
(238 240)
(241 239)
(240 242)
(243 241)
(242 244)
(245 243)
(244 246)
(247 245)
(246 248)
(249 247)
(248 250)
(251 249)
(250 252)
(253 251)
(252 254)
(255 253)
(254 256)
(257 255)
(256 258)
(259 257)
(258 260)
(261 259)
(260 262)
(263 261)
(262 264)
(265 263)
(264 266)
(267 265)
(266 268)
(269 267)
(268 270)
(271 269)
(270 272)
(273 271)
(272 274)
(275 273)
(274 276)
(277 275)
(276 278)
(279 277)
(278 280)
(281 279)
(280 282)
(283 281)
(282 284)
(285 283)
(284 286)
(287 285)
(286 288)
(289 287)
(288 290)
(291 289)
(290 292)
(293 291)
(292 294)
(295 293)
(294 296)
(297 295)
(296 2)
(3 297)
(2 3)
(298 1)
(0 299)
(3 300)
(301 2)
(302 298)
(299 303)
(300 304)
(305 301)
(306 302)
(303 307)
(304 308)
(309 305)
(310 306)
(307 311)
(308 312)
(313 309)
(314 310)
(311 315)
(312 316)
(317 313)
(318 314)
(315 319)
(316 320)
(321 317)
(322 318)
(319 323)
(320 324)
(325 321)
(326 322)
(323 327)
(324 328)
(329 325)
(330 326)
(327 331)
(328 332)
(333 329)
(334 330)
(331 335)
(332 336)
(337 333)
(338 334)
(335 339)
(336 340)
(341 337)
(342 338)
(339 343)
(340 344)
(345 341)
(346 342)
(343 347)
(344 348)
(349 345)
(350 346)
(347 351)
(348 352)
(353 349)
(354 350)
(351 355)
(352 356)
(357 353)
(358 354)
(355 359)
(21 20)
(356 360)
(361 357)
(362 358)
(359 363)
(20 22)
(21 23)
(360 364)
(365 361)
(23 22)
(366 362)
(363 367)
(364 368)
(369 365)
(370 366)
(367 371)
(368 372)
(373 369)
(374 370)
(371 375)
(372 376)
(377 373)
(378 374)
(375 379)
(376 380)
(381 377)
(382 378)
(379 383)
(380 384)
(385 381)
(386 382)
(383 387)
(384 388)
(389 385)
(390 386)
(387 391)
(388 392)
(393 389)
(394 390)
(391 395)
(392 396)
(397 393)
(398 394)
(395 399)
(396 400)
(401 397)
(402 398)
(399 403)
(25 24)
(27 26)
(400 404)
(405 401)
(406 402)
(403 407)
(24 28)
(25 29)
(26 30)
(27 31)
(404 408)
(409 405)
(29 28)
(31 30)
(410 406)
(407 411)
(408 412)
(413 409)
(414 410)
(411 415)
(412 416)
(417 413)
(418 414)
(415 419)
(416 420)
(421 417)
(422 418)
(419 423)
(420 424)
(425 421)
(426 422)
(423 427)
(424 428)
(429 425)
(430 426)
(427 431)
(428 432)
(433 429)
(434 430)
(431 435)
(432 436)
(437 433)
(438 434)
(435 439)
(436 440)
(441 437)
(442 438)
(439 443)
(440 444)
(445 441)
(446 442)
(443 447)
(444 448)
(449 445)
(450 446)
(447 451)
(448 452)
(453 449)
(454 450)
(451 455)
(452 456)
(457 453)
(458 454)
(455 459)
(456 460)
(461 457)
(462 458)
(459 463)
(460 464)
(465 461)
(466 462)
(463 467)
(464 468)
(469 465)
(470 466)
(467 471)
(468 472)
(473 469)
(474 470)
(471 475)
(472 476)
(477 473)
(478 474)
(475 479)
(476 480)
(481 477)
(482 478)
(479 483)
(480 484)
(485 481)
(486 482)
(483 487)
(484 488)
(489 485)
(490 486)
(487 491)
(488 492)
(493 489)
(494 490)
(491 495)
(492 496)
(497 493)
(498 494)
(495 499)
(496 500)
(501 497)
(502 498)
(499 503)
(500 504)
(505 501)
(506 502)
(503 507)
(504 508)
(509 505)
(510 506)
(507 511)
(508 512)
(513 509)
(514 510)
(511 515)
(512 516)
(517 513)
(518 514)
(515 519)
(516 520)
(521 517)
(522 518)
(519 523)
(520 524)
(525 521)
(526 522)
(523 527)
(524 528)
(529 525)
(530 526)
(527 531)
(528 532)
(533 529)
(534 530)
(531 535)
(532 536)
(537 533)
(538 534)
(535 539)
(536 540)
(541 537)
(542 538)
(539 543)
(540 544)
(545 541)
(546 542)
(543 547)
(544 548)
(549 545)
(550 546)
(547 551)
(548 552)
(553 549)
(554 550)
(551 555)
(552 556)
(557 553)
(558 554)
(555 559)
(556 560)
(561 557)
(562 558)
(559 563)
(560 564)
(565 561)
(566 562)
(563 567)
(564 568)
(569 565)
(570 566)
(567 571)
(568 572)
(573 569)
(574 570)
(571 575)
(572 576)
(577 573)