/*--------------------------------*- C++ -*----------------------------------*\
  =========                 |
  \\      /  F ield         | OpenFOAM: The Open Source CFD Toolbox
   \\    /   O peration     | Website:  https://openfoam.org
    \\  /    A nd           | Version:  7
     \\/     M anipulation  |
\*---------------------------------------------------------------------------*/
FoamFile
{
    version     2.0;
    format      ascii;
    class       polyBoundaryMesh;
    location    "constant/polyMesh";
    object      boundary;
}
// * * * * * * * * * * * * * * * * * * * * * * * * * * * * * * * * * * * * * //

6
(
    auto0
    {
        type            wall;
        nFaces          7172;
        startFace       310637;
    }
    auto1
    {
        type            wall;
        nFaces          7172;
        startFace       317809;
    }
    auto2
    {
        type            wall;
        nFaces          14908;
        startFace       324981;
    }
    auto3
    {
        type            wall;
        nFaces          13198;
        startFace       339889;
    }
    auto4
    {
        type            wall;
        nFaces          4946;
        startFace       353087;
    }
    auto5
    {
        type            wall;
        nFaces          7172;
        startFace       358033;
    }
)

// ************************************************************************* //
