// -*- C++ -*-
// File generated by PyFoam - sorry for the ugliness

FoamFile
{
 version 2.0;
 format ascii;
 class volScalarField;
 location "0";
 object k;
}

dimensions [ 0 2 -2 0 0 0 0 ];

internalField uniform 0.00375;

boundaryField
{
  auto0
  {
    type kqRWallFunction;
    value uniform 0.00375;
  }
  auto1
  {
    type zeroGradient;
  }
  auto2
  {
    type kqRWallFunction;
    value uniform 0.00375;
  }
  auto3
  {
    type kqRWallFunction;
    value uniform 0.00375;
  }
  auto4
  {
    type fixedValue;
    value uniform 0.00375;
  }
  auto5
  {
    type kqRWallFunction;
    value uniform 0.00375;
  }
} 	// ************************************************************************* //

