/*--------------------------------*- C++ -*----------------------------------*\
  =========                 |
  \\      /  F ield         | OpenFOAM: The Open Source CFD Toolbox
   \\    /   O peration     | Website:  https://openfoam.org
    \\  /    A nd           | Version:  7
     \\/     M anipulation  |
\*---------------------------------------------------------------------------*/
FoamFile
{
    version     2.0;
    format      ascii;
    class       polyBoundaryMesh;
    location    "constant/polyMesh";
    object      boundary;
}
// * * * * * * * * * * * * * * * * * * * * * * * * * * * * * * * * * * * * * //

6
(
    auto0
    {
        type            wall;
        nFaces          7172;
        startFace       325241;
    }
    auto1
    {
        type            wall;
        nFaces          7172;
        startFace       332413;
    }
    auto2
    {
        type            wall;
        nFaces          14887;
        startFace       339585;
    }
    auto3
    {
        type            wall;
        nFaces          14500;
        startFace       354472;
    }
    auto4
    {
        type            wall;
        nFaces          7172;
        startFace       368972;
    }
    auto5
    {
        type            wall;
        nFaces          7172;
        startFace       376144;
    }
)

// ************************************************************************* //
