// -*- C++ -*-
// File generated by PyFoam - sorry for the ugliness

FoamFile
{
 version 2.0;
 format ascii;
 class volVectorField;
 location "0";
 object U;
}

dimensions [ 0 1 -1 0 0 0 0 ];

internalField uniform (0 0 0);

boundaryField
{
  auto0
  {
    type zeroGradient;
  }
  auto1
  {
    type noSlip;
  }
  auto2
  {
    refValue uniform -1 ;
    type surfaceNormalFixedValue;
  }
  auto3
  {
    type noSlip;
  }
  auto4
  {
    type noSlip;
  }
  auto5
  {
    type noSlip;
  }
  auto6
  {
    type noSlip;
  }
  auto7
  {
    type noSlip;
  }
  auto8
  {
    type noSlip;
  }
  auto9
  {
    type noSlip;
  }
  auto10
  {
    type noSlip;
  }
  auto11
  {
    type noSlip;
  }
  auto12
  {
    type noSlip;
  }
  auto13
  {
    type noSlip;
  }
  auto14
  {
    type noSlip;
  }
  auto15
  {
    type noSlip;
  }
  auto16
  {
    type noSlip;
  }
  auto17
  {
    type noSlip;
  }
  auto18
  {
    type noSlip;
  }
  auto19
  {
    type noSlip;
  }
  auto20
  {
    type noSlip;
  }
  auto21
  {
    type noSlip;
  }
  auto22
  {
    type noSlip;
  }
  auto23
  {
    type noSlip;
  }
  auto24
  {
    type noSlip;
  }
  auto25
  {
    type noSlip;
  }
  auto26
  {
    type noSlip;
  }
  auto27
  {
    type noSlip;
  }
  auto28
  {
    type noSlip;
  }
  auto29
  {
    type noSlip;
  }
  auto30
  {
    type noSlip;
  }
  auto31
  {
    type noSlip;
  }
  auto32
  {
    type noSlip;
  }
  auto33
  {
    type noSlip;
  }
  auto34
  {
    type noSlip;
  }
  auto35
  {
    type noSlip;
  }
} 	// ************************************************************************* //

