/*--------------------------------*- C++ -*----------------------------------*\
  =========                 |
  \\      /  F ield         | OpenFOAM: The Open Source CFD Toolbox
   \\    /   O peration     | Website:  https://openfoam.org
    \\  /    A nd           | Version:  7
     \\/     M anipulation  |
\*---------------------------------------------------------------------------*/
FoamFile
{
    version     2.0;
    format      ascii;
    class       polyBoundaryMesh;
    location    "constant/polyMesh";
    object      boundary;
}
// * * * * * * * * * * * * * * * * * * * * * * * * * * * * * * * * * * * * * //

5
(
    flow_vol
    {
        type            wall;
        inGroups        List<word> 1(wall);
        nFaces          6289;
        startFace       40448;
    }
    procBoundary5to1
    {
        type            processor;
        inGroups        List<word> 1(processor);
        nFaces          317;
        startFace       46737;
        matchTolerance  0.0001;
        transform       unknown;
        myProcNo        5;
        neighbProcNo    1;
    }
    procBoundary5to2
    {
        type            processor;
        inGroups        List<word> 1(processor);
        nFaces          2;
        startFace       47054;
        matchTolerance  0.0001;
        transform       unknown;
        myProcNo        5;
        neighbProcNo    2;
    }
    procBoundary5to4
    {
        type            processor;
        inGroups        List<word> 1(processor);
        nFaces          486;
        startFace       47056;
        matchTolerance  0.0001;
        transform       unknown;
        myProcNo        5;
        neighbProcNo    4;
    }
    procBoundary5to6
    {
        type            processor;
        inGroups        List<word> 1(processor);
        nFaces          503;
        startFace       47542;
        matchTolerance  0.0001;
        transform       unknown;
        myProcNo        5;
        neighbProcNo    6;
    }
)

// ************************************************************************* //
