/*--------------------------------*- C++ -*----------------------------------*\
| =========                 |                                                 |
| \\      /  F ield         | OpenFOAM: The Open Source CFD Toolbox           |
|  \\    /   O peration     | Version:  2.3.1                                 |
|   \\  /    A nd           | Web:      www.OpenFOAM.org                      |
|    \\/     M anipulation  |                                                 |
\*---------------------------------------------------------------------------*/
FoamFile
{
    version     2.0;
    format      ascii;
    class       volScalarField;
    location    "0";
    object      p;
}
// * * * * * * * * * * * * * * * * * * * * * * * * * * * * * * * * * * * * * //

dimensions      [0 2 -2 0 0 0 0];

internalField   uniform 0;

boundaryField
{
    B1_B1_TE1486
    {
        type            zeroGradient;
    }
    B1_B1_TE1464
    {
        type            zeroGradient;
    }
    B1_B1_TE1442
    {
        type            zeroGradient;
    }
    B1_B1_TE1420
    {
        type            zeroGradient;
    }
    B1_B1_TE1398
    {
        type            zeroGradient;
    }
    B1_B1_TE1376
    {
        type            zeroGradient;
    }
    B1_B1_TE1354
    {
        type            zeroGradient;
    }
    B1_B1_TE1332
    {
        type            zeroGradient;
    }
    B1_B1_TE1310
    {
        type            zeroGradient;
    }
    B1_B1_TE1288
    {
        type            zeroGradient;
    }
    B1_B1_TE1263
    {
        type            zeroGradient;
    }
    B1_B1_TE1262
    {
        type            zeroGradient;
    }
    B1_B1_TE1229
    {
        type            zeroGradient;
    }
    B1_B1_TE1207
    {
        type            zeroGradient;
    }
    B1_B1_TE1182
    {
        type            zeroGradient;
    }
    B1_B1_TE1181
    {
        type            zeroGradient;
    }
    B1_B1_TE1140
    {
        type            zeroGradient;
    }
    B1_B1_TE1139
    {
        type            zeroGradient;
    }
    B1_B1_TE1107
    {
        type            zeroGradient;
    }
    B1_B1_TE1086
    {
        type            zeroGradient;
    }
    B1_B1_TE1065
    {
        type            zeroGradient;
    }
    B1_B1_TE1044
    {
        type            zeroGradient;
    }
    B1_B1_TE1023
    {
        type            zeroGradient;
    }
    B1_B1_TE1002
    {
        type            zeroGradient;
    }
    B1_B1_TE981
    {
        type            zeroGradient;
    }
    B1_B1_TE960
    {
        type            zeroGradient;
    }
    B1_B1_TE936
    {
        type            zeroGradient;
    }
    B1_B1_TE935
    {
        type            zeroGradient;
    }
    B1_B1_TE899
    {
        type            zeroGradient;
    }
    B1_B1_TE878
    {
        type            zeroGradient;
    }
    B1_B1_TE857
    {
        type            zeroGradient;
    }
    B1_B1_TE836
    {
        type            zeroGradient;
    }
    B1_B1_TE817
    {
        type            zeroGradient;
    }
    B1_B1_TE798
    {
        type            zeroGradient;
    }
    B1_B1_TE779
    {
        type            zeroGradient;
    }
    B1_B1_TE760
    {
        type            zeroGradient;
    }
    B1_B1_TE739
    {
        type            zeroGradient;
    }
    B1_B1_TE718
    {
        type            zeroGradient;
    }
    B1_B1_TE699
    {
        type            zeroGradient;
    }
    B1_B1_TE681
    {
        type            zeroGradient;
    }
    B1_B1_TE669
    {
        type            zeroGradient;
    }
    B1_B1_TE655
    {
        type            zeroGradient;
    }
    B1_B1_TE634
    {
        type            zeroGradient;
    }
    B1_B1_TE610
    {
        type            zeroGradient;
    }
    B1_B1_TE609
    {
        type            zeroGradient;
    }
    B1_B1_TE577
    {
        type            zeroGradient;
    }
    B1_B1_TE556
    {
        type            zeroGradient;
    }
    B1_B1_TE532
    {
        type            zeroGradient;
    }
    B1_B1_TE502
    {
        type            zeroGradient;
    }
    B1_B1_TE483
    {
        type            zeroGradient;
    }
    B1_B1_TE462
    {
        type            zeroGradient;
    }
    B1_B1_TE441
    {
        type            zeroGradient;
    }
    B1_B1_TE417
    {
        type            zeroGradient;
    }
    B1_B1_TE416
    {
        type            zeroGradient;
    }
    B1_B1_TE386
    {
        type            zeroGradient;
    }
    B1_B1_TE367
    {
        type            zeroGradient;
    }
    B1_B1_TE348
    {
        type            zeroGradient;
    }
    B1_B1_TE330
    {
        type            zeroGradient;
    }
    B1_B1_TE315
    {
        type            zeroGradient;
    }
    B1_B1_TE297
    {
        type            zeroGradient;
    }
    B1_B1_TE282
    {
        type            zeroGradient;
    }
    B1_B1_TE260
    {
        type            zeroGradient;
    }
    B1_B1_TE239
    {
        type            zeroGradient;
    }
    B1_B1_TE215
    {
        type            zeroGradient;
    }
    B1_B1_TE214
    {
        type            zeroGradient;
    }
    B1_B1_TE182
    {
        type            zeroGradient;
    }
    B1_B1_TE162
    {
        type            zeroGradient;
    }
    B1_B1_TE140
    {
        type            zeroGradient;
    }
    B1_B1_TE139
    {
        type            zeroGradient;
    }
    B1_B1_TE108
    {
        type            zeroGradient;
    }
    B1_B1_TE87
    {
        type            zeroGradient;
    }
    B1_B1_TE38
    {
        type            fixedValue;
        value           uniform 0;
    }
    B1_B1_TE26
    {
        type            zeroGradient;
    }
    B1_B1_TE1
    {
        type            zeroGradient;
    }


}


// ************************************************************************* //
