/*--------------------------------*- C++ -*----------------------------------*\
  =========                 |
  \\      /  F ield         | OpenFOAM: The Open Source CFD Toolbox
   \\    /   O peration     | Website:  https://openfoam.org
    \\  /    A nd           | Version:  7
     \\/     M anipulation  |
\*---------------------------------------------------------------------------*/
FoamFile
{
    version     2.0;
    format      ascii;
    class       polyBoundaryMesh;
    location    "constant/polyMesh";
    object      boundary;
}
// * * * * * * * * * * * * * * * * * * * * * * * * * * * * * * * * * * * * * //

3
(
    flow_vol
    {
        type            wall;
        inGroups        List<word> 1(wall);
        nFaces          7280;
        startFace       37901;
    }
    procBoundary7to3
    {
        type            processor;
        inGroups        List<word> 1(processor);
        nFaces          234;
        startFace       45181;
        matchTolerance  0.0001;
        transform       unknown;
        myProcNo        7;
        neighbProcNo    3;
    }
    procBoundary7to6
    {
        type            processor;
        inGroups        List<word> 1(processor);
        nFaces          452;
        startFace       45415;
        matchTolerance  0.0001;
        transform       unknown;
        myProcNo        7;
        neighbProcNo    6;
    }
)

// ************************************************************************* //
